
     RDKit          3D

 55 58  0  0  0  0  0  0  0  0999 V2000
   -0.4165   -2.6864    1.0841 C   0  0  0  0  0  0  0  0  0  0  0  0
   -1.7496   -2.4626    0.4426 C   0  0  0  0  0  0  0  0  0  0  0  0
   -2.6332   -3.4522    0.1873 N   0  0  0  0  0  0  0  0  0  0  0  0
   -3.6915   -2.9612   -0.4412 N   0  0  0  0  0  0  0  0  0  0  0  0
   -3.4663   -1.6455   -0.5917 C   0  0  0  0  0  0  0  0  0  0  0  0
   -2.2652   -1.2761   -0.0641 C   0  0  0  0  0  0  0  0  0  0  0  0
   -1.7933    0.1696   -0.0311 C   0  0  2  0  0  0  0  0  0  0  0  0
   -0.3578    0.1654   -0.6063 C   0  0  0  0  0  0  0  0  0  0  0  0
    0.7974    0.2519    0.2023 C   0  0  0  0  0  0  0  0  0  0  0  0
    2.0902    0.1650   -0.3477 C   0  0  0  0  0  0  0  0  0  0  0  0
    3.2607    0.2445    0.5017 N   0  0  0  0  0  0  0  0  0  0  0  0
    4.6230    0.3616    0.0012 C   0  0  0  0  0  0  0  0  0  0  0  0
    5.4988    0.5907    1.2246 C   0  0  0  0  0  0  0  0  0  0  0  0
    4.6645    0.1429    2.4182 C   0  0  0  0  0  0  0  0  0  0  0  0
    3.2158    0.2129    1.9570 C   0  0  0  0  0  0  0  0  0  0  0  0
    2.2247   -0.0175   -1.7344 C   0  0  0  0  0  0  0  0  0  0  0  0
    1.0979   -0.1140   -2.5617 C   0  0  0  0  0  0  0  0  0  0  0  0
    1.2563   -0.3864   -4.0375 C   0  0  0  0  0  0  0  0  0  0  0  0
    2.4265    0.1762   -4.5175 F   0  0  0  0  0  0  0  0  0  0  0  0
    0.1973    0.1493   -4.7502 F   0  0  0  0  0  0  0  0  0  0  0  0
    1.2945   -1.7524   -4.2462 F   0  0  0  0  0  0  0  0  0  0  0  0
   -0.1792   -0.0622   -1.9870 C   0  0  0  0  0  0  0  0  0  0  0  0
   -1.9143    0.6966    1.4593 C   0  0  0  0  0  0  0  0  0  0  0  0
   -3.3391    0.5542    2.0367 C   0  0  0  0  0  0  0  0  0  0  0  0
   -1.4518    2.1568    1.6572 C   0  0  0  0  0  0  0  0  0  0  0  0
   -2.7090    1.0349   -0.9464 C   0  0  0  0  0  0  0  0  0  0  0  0
   -2.2594    2.3663   -1.3041 C   0  0  0  0  0  0  0  0  0  0  0  0
   -1.8976    3.4275   -1.5908 N   0  0  0  0  0  0  0  0  0  0  0  0
   -3.9018    0.5795   -1.4332 C   0  0  0  0  0  0  0  0  0  0  0  0
   -4.7706    1.4224   -2.2013 N   0  0  0  0  0  0  0  0  0  0  0  0
   -4.3124   -0.7456   -1.2189 O   0  0  0  0  0  0  0  0  0  0  0  0
   -0.2500   -1.9614    1.9041 H   0  0  0  0  0  0  0  0  0  0  0  0
   -0.3665   -3.7091    1.5126 H   0  0  0  0  0  0  0  0  0  0  0  0
    0.3847   -2.5836    0.3235 H   0  0  0  0  0  0  0  0  0  0  0  0
   -2.5176   -4.4606    0.4325 H   0  0  0  0  0  0  0  0  0  0  0  0
    0.7050    0.3713    1.2671 H   0  0  0  0  0  0  0  0  0  0  0  0
    4.9162   -0.5816   -0.5090 H   0  0  0  0  0  0  0  0  0  0  0  0
    4.7081    1.2197   -0.7006 H   0  0  0  0  0  0  0  0  0  0  0  0
    6.4496    0.0186    1.1570 H   0  0  0  0  0  0  0  0  0  0  0  0
    5.7298    1.6746    1.3206 H   0  0  0  0  0  0  0  0  0  0  0  0
    4.8413    0.7922    3.3030 H   0  0  0  0  0  0  0  0  0  0  0  0
    4.9234   -0.9075    2.6773 H   0  0  0  0  0  0  0  0  0  0  0  0
    2.7366    1.1415    2.3366 H   0  0  0  0  0  0  0  0  0  0  0  0
    2.6552   -0.6801    2.3103 H   0  0  0  0  0  0  0  0  0  0  0  0
    3.2079   -0.1089   -2.1752 H   0  0  0  0  0  0  0  0  0  0  0  0
   -1.0461   -0.2096   -2.6195 H   0  0  0  0  0  0  0  0  0  0  0  0
   -1.2796    0.0646    2.1120 H   0  0  0  0  0  0  0  0  0  0  0  0
   -4.0737    1.1342    1.4396 H   0  0  0  0  0  0  0  0  0  0  0  0
   -3.6547   -0.5091    2.0652 H   0  0  0  0  0  0  0  0  0  0  0  0
   -3.3668    0.9300    3.0821 H   0  0  0  0  0  0  0  0  0  0  0  0
   -0.5276    2.3869    1.0920 H   0  0  0  0  0  0  0  0  0  0  0  0
   -1.2460    2.3404    2.7334 H   0  0  0  0  0  0  0  0  0  0  0  0
   -2.2394    2.8724    1.3403 H   0  0  0  0  0  0  0  0  0  0  0  0
   -4.5669    2.4288   -2.3885 H   0  0  0  0  0  0  0  0  0  0  0  0
   -5.6620    1.0303   -2.5773 H   0  0  0  0  0  0  0  0  0  0  0  0
  1  2  1  0
  2  3  1  0
  3  4  1  0
  4  5  2  0
  5  6  1  0
  6  7  1  0
  7  8  1  0
  8  9  2  0
  9 10  1  0
 10 11  1  0
 11 12  1  0
 12 13  1  0
 13 14  1  0
 14 15  1  0
 10 16  2  0
 16 17  1  0
 17 18  1  0
 18 19  1  0
 18 20  1  0
 18 21  1  0
 17 22  2  0
  7 23  1  1
 23 24  1  0
 23 25  1  0
  7 26  1  0
 26 27  1  0
 27 28  3  0
 26 29  2  0
 29 30  1  0
 29 31  1  0
  6  2  2  0
 22  8  1  0
 31  5  1  0
 15 11  1  0
  1 32  1  0
  1 33  1  0
  1 34  1  0
  3 35  1  0
  9 36  1  0
 12 37  1  0
 12 38  1  0
 13 39  1  0
 13 40  1  0
 14 41  1  0
 14 42  1  0
 15 43  1  0
 15 44  1  0
 16 45  1  0
 22 46  1  0
 23 47  1  0
 24 48  1  0
 24 49  1  0
 24 50  1  0
 25 51  1  0
 25 52  1  0
 25 53  1  0
 30 54  1  0
 30 55  1  0
M  END
>  <tautomer smiles>  (1) 
Cc1[nH]nc2c1[C@](c1cc(N3CCCC3)cc(C(F)(F)F)c1)(C(C)C)C(C#N)=C(N)O2

>  <protonation smiles>  (1) 
Cc1[nH]nc2c1[C@](c1cc(N3CCCC3)cc(C(F)(F)F)c1)(C(C)C)C(C#N)=C(N)O2

>  <Score>  (1) 
0.0

>  <Label>  (1) 
low_energy

$$$$

     RDKit          3D

 56 59  0  0  0  0  0  0  0  0999 V2000
   -1.1590    2.1567    1.9870 C   0  0  0  0  0  0  0  0  0  0  0  0
   -2.4397    1.3954    1.8398 C   0  0  0  0  0  0  0  0  0  0  0  0
   -3.4857    1.5299    2.6843 N   0  0  0  0  0  0  0  0  0  0  0  0
   -4.4162    0.6300    2.3994 N   0  0  0  0  0  0  0  0  0  0  0  0
   -3.9450   -0.0868    1.3659 C   0  0  0  0  0  0  0  0  0  0  0  0
   -2.7171    0.3491    0.9670 C   0  0  0  0  0  0  0  0  0  0  0  0
   -1.9949   -0.2531   -0.2343 C   0  0  2  0  0  0  0  0  0  0  0  0
   -0.4958   -0.3761    0.1290 C   0  0  0  0  0  0  0  0  0  0  0  0
    0.5549    0.1900   -0.6239 C   0  0  0  0  0  0  0  0  0  0  0  0
    1.8970    0.0686   -0.2196 C   0  0  0  0  0  0  0  0  0  0  0  0
    2.9546    0.6882   -1.0063 N   0  0  0  0  0  4  0  0  0  0  0  0
    3.8681   -0.3136   -1.5918 C   0  0  0  0  0  0  0  0  0  0  0  0
    5.2839    0.2008   -1.4058 C   0  0  0  0  0  0  0  0  0  0  0  0
    5.1996    1.0998   -0.1956 C   0  0  0  0  0  0  0  0  0  0  0  0
    3.7744    1.6274   -0.2112 C   0  0  0  0  0  0  0  0  0  0  0  0
    2.1936   -0.6619    0.9461 C   0  0  0  0  0  0  0  0  0  0  0  0
    1.1775   -1.2773    1.6865 C   0  0  0  0  0  0  0  0  0  0  0  0
    1.5009   -2.0197    2.9594 C   0  0  0  0  0  0  0  0  0  0  0  0
    2.7704   -2.5686    2.9005 F   0  0  0  0  0  0  0  0  0  0  0  0
    1.4389   -1.1417    4.0253 F   0  0  0  0  0  0  0  0  0  0  0  0
    0.5966   -3.0469    3.1679 F   0  0  0  0  0  0  0  0  0  0  0  0
   -0.1548   -1.1128    1.2846 C   0  0  0  0  0  0  0  0  0  0  0  0
   -2.3876    0.6124   -1.5074 C   0  0  0  0  0  0  0  0  0  0  0  0
   -1.9376    0.0215   -2.8657 C   0  0  0  0  0  0  0  0  0  0  0  0
   -2.0849    2.1256   -1.4193 C   0  0  0  0  0  0  0  0  0  0  0  0
   -2.5633   -1.6819   -0.4689 C   0  0  0  0  0  0  0  0  0  0  0  0
   -1.7689   -2.6266   -1.2315 C   0  0  0  0  0  0  0  0  0  0  0  0
   -1.1321   -3.3783   -1.8389 N   0  0  0  0  0  0  0  0  0  0  0  0
   -3.8119   -2.0409   -0.0448 C   0  0  0  0  0  0  0  0  0  0  0  0
   -4.4008   -3.2942   -0.4147 N   0  0  0  0  0  0  0  0  0  0  0  0
   -4.5498   -1.2026    0.8078 O   0  0  0  0  0  0  0  0  0  0  0  0
   -0.6568    2.2922    1.0113 H   0  0  0  0  0  0  0  0  0  0  0  0
   -0.4795    1.6040    2.6684 H   0  0  0  0  0  0  0  0  0  0  0  0
   -1.3642    3.1592    2.4168 H   0  0  0  0  0  0  0  0  0  0  0  0
   -3.5582    2.2139    3.4698 H   0  0  0  0  0  0  0  0  0  0  0  0
    0.3626    0.7376   -1.5257 H   0  0  0  0  0  0  0  0  0  0  0  0
    2.5337    1.2317   -1.7985 H   0  0  0  0  0  0  0  0  0  0  0  0
    3.6532   -0.4632   -2.6741 H   0  0  0  0  0  0  0  0  0  0  0  0
    3.7836   -1.3079   -1.0964 H   0  0  0  0  0  0  0  0  0  0  0  0
    6.0077   -0.6285   -1.2499 H   0  0  0  0  0  0  0  0  0  0  0  0
    5.5862    0.7977   -2.2947 H   0  0  0  0  0  0  0  0  0  0  0  0
    5.3704    0.5027    0.7272 H   0  0  0  0  0  0  0  0  0  0  0  0
    5.9447    1.9233   -0.2466 H   0  0  0  0  0  0  0  0  0  0  0  0
    3.7718    2.6332   -0.6911 H   0  0  0  0  0  0  0  0  0  0  0  0
    3.4013    1.7670    0.8291 H   0  0  0  0  0  0  0  0  0  0  0  0
    3.2225   -0.7507    1.2705 H   0  0  0  0  0  0  0  0  0  0  0  0
   -0.9427   -1.5568    1.8814 H   0  0  0  0  0  0  0  0  0  0  0  0
   -3.5014    0.5802   -1.5594 H   0  0  0  0  0  0  0  0  0  0  0  0
   -2.6231   -0.8005   -3.1631 H   0  0  0  0  0  0  0  0  0  0  0  0
   -0.9161   -0.3991   -2.8419 H   0  0  0  0  0  0  0  0  0  0  0  0
   -1.9855    0.7817   -3.6737 H   0  0  0  0  0  0  0  0  0  0  0  0
   -2.4457    2.6390   -2.3359 H   0  0  0  0  0  0  0  0  0  0  0  0
   -1.0119    2.3569   -1.3110 H   0  0  0  0  0  0  0  0  0  0  0  0
   -2.6356    2.5882   -0.5763 H   0  0  0  0  0  0  0  0  0  0  0  0
   -5.3444   -3.5448   -0.0451 H   0  0  0  0  0  0  0  0  0  0  0  0
   -3.9379   -3.9695   -1.0620 H   0  0  0  0  0  0  0  0  0  0  0  0
  1  2  1  0
  2  3  1  0
  3  4  1  0
  4  5  2  0
  5  6  1  0
  6  7  1  0
  7  8  1  0
  8  9  2  0
  9 10  1  0
 10 11  1  0
 11 12  1  0
 12 13  1  0
 13 14  1  0
 14 15  1  0
 10 16  2  0
 16 17  1  0
 17 18  1  0
 18 19  1  0
 18 20  1  0
 18 21  1  0
 17 22  2  0
  7 23  1  6
 23 24  1  0
 23 25  1  0
  7 26  1  0
 26 27  1  0
 27 28  3  0
 26 29  2  0
 29 30  1  0
 29 31  1  0
  6  2  2  0
 22  8  1  0
 31  5  1  0
 15 11  1  0
  1 32  1  0
  1 33  1  0
  1 34  1  0
  3 35  1  0
  9 36  1  0
 11 37  1  0
 12 38  1  0
 12 39  1  0
 13 40  1  0
 13 41  1  0
 14 42  1  0
 14 43  1  0
 15 44  1  0
 15 45  1  0
 16 46  1  0
 22 47  1  0
 23 48  1  0
 24 49  1  0
 24 50  1  0
 24 51  1  0
 25 52  1  0
 25 53  1  0
 25 54  1  0
 30 55  1  0
 30 56  1  0
M  CHG  1  11   1
M  END
>  <tautomer smiles>  (2) 
Cc1[nH]nc2c1[C@](c1cc(N3CCCC3)cc(C(F)(F)F)c1)(C(C)C)C(C#N)=C(N)O2

>  <protonation smiles>  (2) 
Cc1[nH]nc2c1[C@](c1cc([NH+]3CCCC3)cc(C(F)(F)F)c1)(C(C)C)C(C#N)=C(N)O2

>  <Score>  (2) 
0.0

>  <Label>  (2) 
low_energy

$$$$

     RDKit          3D

 55 58  0  0  0  0  0  0  0  0999 V2000
   -1.6411   -1.9245   -1.5438 C   0  0  0  0  0  0  0  0  0  0  0  0
   -2.1900   -0.5343   -1.6169 C   0  0  0  0  0  0  0  0  0  0  0  0
   -2.8835   -0.0547   -2.6719 N   0  0  0  0  0  0  0  0  0  0  0  0
   -3.2596    1.1941   -2.4364 N   0  0  0  0  0  0  0  0  0  0  0  0
   -2.7836    1.5162   -1.2219 C   0  0  0  0  0  0  0  0  0  0  0  0
   -2.0775    0.4737   -0.6680 C   0  0  0  0  0  0  0  0  0  0  0  0
   -1.5263    0.4968    0.7576 C   0  0  2  0  0  0  0  0  0  0  0  0
   -0.1650   -0.2609    0.7216 C   0  0  0  0  0  0  0  0  0  0  0  0
    0.8534    0.1913   -0.1515 C   0  0  0  0  0  0  0  0  0  0  0  0
    2.0919   -0.4658   -0.2595 C   0  0  0  0  0  0  0  0  0  0  0  0
    3.1099    0.0199   -1.1683 N   0  0  0  0  0  0  0  0  0  0  0  0
    4.4778   -0.4783   -1.1992 C   0  0  0  0  0  0  0  0  0  0  0  0
    5.2317    0.4303   -2.1597 C   0  0  0  0  0  0  0  0  0  0  0  0
    4.1627    1.1337   -2.9865 C   0  0  0  0  0  0  0  0  0  0  0  0
    2.8892    1.0675   -2.1556 C   0  0  0  0  0  0  0  0  0  0  0  0
    2.3153   -1.6133    0.5161 C   0  0  0  0  0  0  0  0  0  0  0  0
    1.3240   -2.1065    1.3733 C   0  0  0  0  0  0  0  0  0  0  0  0
    1.5438   -3.3938    2.1313 C   0  0  0  0  0  0  0  0  0  0  0  0
    0.8595   -3.3731    3.3345 F   0  0  0  0  0  0  0  0  0  0  0  0
    1.0856   -4.4530    1.3705 F   0  0  0  0  0  0  0  0  0  0  0  0
    2.8877   -3.5833    2.4047 F   0  0  0  0  0  0  0  0  0  0  0  0
    0.0825   -1.4561    1.4373 C   0  0  0  0  0  0  0  0  0  0  0  0
   -2.6208   -0.1908    1.7007 C   0  0  0  0  0  0  0  0  0  0  0  0
   -2.3046   -0.1760    3.2143 C   0  0  0  0  0  0  0  0  0  0  0  0
   -4.0671    0.3208    1.5171 C   0  0  0  0  0  0  0  0  0  0  0  0
   -1.2613    2.0299    1.1132 C   0  0  0  0  0  0  0  0  0  0  0  0
   -0.8265    2.2766    2.5002 C   0  0  0  0  0  0  0  0  0  0  0  0
   -0.4760    2.4815    3.5843 N   0  0  0  0  0  0  0  0  0  0  0  0
   -2.3916    2.9510    0.6731 C   0  0  0  0  0  0  0  0  0  0  0  0
   -2.7395    3.9772    1.3824 N   0  0  0  0  0  0  0  0  0  0  0  0
   -3.0144    2.7188   -0.5602 O   0  0  0  0  0  0  0  0  0  0  0  0
   -1.8802   -2.3814   -0.5625 H   0  0  0  0  0  0  0  0  0  0  0  0
   -0.5410   -1.9010   -1.6855 H   0  0  0  0  0  0  0  0  0  0  0  0
   -2.0887   -2.5545   -2.3405 H   0  0  0  0  0  0  0  0  0  0  0  0
   -3.1185   -0.5785   -3.5440 H   0  0  0  0  0  0  0  0  0  0  0  0
    0.6628    1.0415   -0.7881 H   0  0  0  0  0  0  0  0  0  0  0  0
    4.4861   -1.5247   -1.5744 H   0  0  0  0  0  0  0  0  0  0  0  0
    4.9330   -0.4307   -0.1859 H   0  0  0  0  0  0  0  0  0  0  0  0
    5.8098    1.1857   -1.5829 H   0  0  0  0  0  0  0  0  0  0  0  0
    5.9279   -0.1484   -2.8049 H   0  0  0  0  0  0  0  0  0  0  0  0
    4.0137    0.5848   -3.9425 H   0  0  0  0  0  0  0  0  0  0  0  0
    4.4486    2.1847   -3.2091 H   0  0  0  0  0  0  0  0  0  0  0  0
    2.0203    0.8166   -2.8024 H   0  0  0  0  0  0  0  0  0  0  0  0
    2.7163    2.0370   -1.6398 H   0  0  0  0  0  0  0  0  0  0  0  0
    3.2517   -2.1476    0.4328 H   0  0  0  0  0  0  0  0  0  0  0  0
   -0.6825   -1.9242    2.0326 H   0  0  0  0  0  0  0  0  0  0  0  0
   -2.6787   -1.2582    1.3980 H   0  0  0  0  0  0  0  0  0  0  0  0
   -2.6787    0.7539    3.6931 H   0  0  0  0  0  0  0  0  0  0  0  0
   -1.2218   -0.2586    3.4297 H   0  0  0  0  0  0  0  0  0  0  0  0
   -2.8150   -1.0293    3.7103 H   0  0  0  0  0  0  0  0  0  0  0  0
   -4.7563   -0.2604    2.1672 H   0  0  0  0  0  0  0  0  0  0  0  0
   -4.4256    0.1767    0.4781 H   0  0  0  0  0  0  0  0  0  0  0  0
   -4.1613    1.3869    1.8030 H   0  0  0  0  0  0  0  0  0  0  0  0
   -0.4107    2.3953    0.5079 H   0  0  0  0  0  0  0  0  0  0  0  0
   -3.4979    4.6196    1.0624 H   0  0  0  0  0  0  0  0  0  0  0  0
  1  2  1  0
  2  3  1  0
  3  4  1  0
  4  5  2  0
  5  6  1  0
  6  7  1  0
  7  8  1  0
  8  9  2  0
  9 10  1  0
 10 11  1  0
 11 12  1  0
 12 13  1  0
 13 14  1  0
 14 15  1  0
 10 16  2  0
 16 17  1  0
 17 18  1  0
 18 19  1  0
 18 20  1  0
 18 21  1  0
 17 22  2  0
  7 23  1  1
 23 24  1  0
 23 25  1  0
  7 26  1  0
 26 27  1  0
 27 28  3  0
 26 29  1  0
 29 30  2  3
 29 31  1  0
  6  2  2  0
 22  8  1  0
 31  5  1  0
 15 11  1  0
  1 32  1  0
  1 33  1  0
  1 34  1  0
  3 35  1  0
  9 36  1  0
 12 37  1  0
 12 38  1  0
 13 39  1  0
 13 40  1  0
 14 41  1  0
 14 42  1  0
 15 43  1  0
 15 44  1  0
 16 45  1  0
 22 46  1  0
 23 47  1  0
 24 48  1  0
 24 49  1  0
 24 50  1  0
 25 51  1  0
 25 52  1  0
 25 53  1  0
 26 54  1  0
 30 55  1  0
M  END
>  <tautomer smiles>  (3) 
Cc1[nH]nc2c1[C@](c1cc(N3CCCC3)cc(C(F)(F)F)c1)(C(C)C)C(C#N)C(=N)O2

>  <protonation smiles>  (3) 
Cc1[nH]nc2c1[C@](c1cc(N3CCCC3)cc(C(F)(F)F)c1)(C(C)C)C(C#N)C(=N)O2

>  <Score>  (3) 
1.71

>  <Label>  (3) 
low_energy

$$$$

     RDKit          3D

 55 58  0  0  0  0  0  0  0  0999 V2000
   -0.9974   -1.2392    3.0658 C   0  0  0  0  0  0  0  0  0  0  0  0
   -1.4676   -1.9891    1.8616 C   0  0  0  0  0  0  0  0  0  0  0  0
   -1.6426   -3.3314    1.8497 N   0  0  0  0  0  0  0  0  0  0  0  0
   -2.0071   -3.6847    0.6259 N   0  0  0  0  0  0  0  0  0  0  0  0
   -2.0493   -2.5834   -0.1356 C   0  0  0  0  0  0  0  0  0  0  0  0
   -1.7152   -1.4825    0.5878 C   0  0  0  0  0  0  0  0  0  0  0  0
   -1.7508   -0.0780    0.0045 C   0  0  2  0  0  0  0  0  0  0  0  0
   -0.3892    0.5660    0.3533 C   0  0  0  0  0  0  0  0  0  0  0  0
    0.7707    0.0982   -0.3012 C   0  0  0  0  0  0  0  0  0  0  0  0
    2.0490    0.5919    0.0128 C   0  0  0  0  0  0  0  0  0  0  0  0
    3.2213    0.0968   -0.6783 N   0  0  0  0  0  0  0  0  0  0  0  0
    3.1710   -0.7650   -1.8511 C   0  0  0  0  0  0  0  0  0  0  0  0
    4.6054   -0.8794   -2.3469 C   0  0  0  0  0  0  0  0  0  0  0  0
    5.4816   -0.4451   -1.1784 C   0  0  0  0  0  0  0  0  0  0  0  0
    4.5892    0.4090   -0.2891 C   0  0  0  0  0  0  0  0  0  0  0  0
    2.1668    1.5656    1.0184 C   0  0  0  0  0  0  0  0  0  0  0  0
    1.0359    2.0441    1.6950 C   0  0  0  0  0  0  0  0  0  0  0  0
    1.1841    3.0344    2.8247 C   0  0  0  0  0  0  0  0  0  0  0  0
    2.2994    3.8331    2.6389 F   0  0  0  0  0  0  0  0  0  0  0  0
    1.3163    2.3469    4.0166 F   0  0  0  0  0  0  0  0  0  0  0  0
    0.0736    3.8575    2.8995 F   0  0  0  0  0  0  0  0  0  0  0  0
   -0.2262    1.5161    1.3846 C   0  0  0  0  0  0  0  0  0  0  0  0
   -3.0154    0.6729    0.5961 C   0  0  0  0  0  0  0  0  0  0  0  0
   -4.3382   -0.0833    0.3472 C   0  0  0  0  0  0  0  0  0  0  0  0
   -3.1834    2.1249    0.0976 C   0  0  0  0  0  0  0  0  0  0  0  0
   -1.8940   -0.1641   -1.5444 C   0  0  0  0  0  0  0  0  0  0  0  0
   -1.6342    1.0304   -2.3243 C   0  0  0  0  0  0  0  0  0  0  0  0
   -1.4235    1.9840   -2.9453 N   0  0  0  0  0  0  0  0  0  0  0  0
   -2.2319   -1.3216   -2.1880 C   0  0  0  0  0  0  0  0  0  0  0  0
   -2.4429   -1.3589   -3.6055 N   0  0  0  0  0  0  0  0  0  0  0  0
   -2.3610   -2.5295   -1.4843 O   0  0  0  0  0  0  0  0  0  0  0  0
    0.0473   -0.8998    2.9097 H   0  0  0  0  0  0  0  0  0  0  0  0
   -1.0239   -1.9002    3.9573 H   0  0  0  0  0  0  0  0  0  0  0  0
   -1.6501   -0.3667    3.2624 H   0  0  0  0  0  0  0  0  0  0  0  0
   -2.2083   -4.6631    0.3232 H   0  0  0  0  0  0  0  0  0  0  0  0
    0.6701   -0.6773   -1.0479 H   0  0  0  0  0  0  0  0  0  0  0  0
    2.5258   -0.3160   -2.6375 H   0  0  0  0  0  0  0  0  0  0  0  0
    2.7833   -1.7662   -1.5628 H   0  0  0  0  0  0  0  0  0  0  0  0
    4.7607   -0.1865   -3.2032 H   0  0  0  0  0  0  0  0  0  0  0  0
    4.8429   -1.9168   -2.6681 H   0  0  0  0  0  0  0  0  0  0  0  0
    5.8195   -1.3432   -0.6158 H   0  0  0  0  0  0  0  0  0  0  0  0
    6.3707    0.1233   -1.5279 H   0  0  0  0  0  0  0  0  0  0  0  0
    4.7909    1.4880   -0.4653 H   0  0  0  0  0  0  0  0  0  0  0  0
    4.7571    0.1572    0.7807 H   0  0  0  0  0  0  0  0  0  0  0  0
    3.1412    1.9503    1.2863 H   0  0  0  0  0  0  0  0  0  0  0  0
   -1.0681    1.8491    1.9702 H   0  0  0  0  0  0  0  0  0  0  0  0
   -2.9167    0.7185    1.6991 H   0  0  0  0  0  0  0  0  0  0  0  0
   -4.3269   -1.0801    0.8345 H   0  0  0  0  0  0  0  0  0  0  0  0
   -4.5274   -0.2133   -0.7390 H   0  0  0  0  0  0  0  0  0  0  0  0
   -5.1895    0.4822    0.7834 H   0  0  0  0  0  0  0  0  0  0  0  0
   -2.2211    2.6717    0.0588 H   0  0  0  0  0  0  0  0  0  0  0  0
   -3.8608    2.6786    0.7824 H   0  0  0  0  0  0  0  0  0  0  0  0
   -3.6378    2.1501   -0.9152 H   0  0  0  0  0  0  0  0  0  0  0  0
   -2.6745   -2.2676   -4.0639 H   0  0  0  0  0  0  0  0  0  0  0  0
   -2.3987   -0.5088   -4.2093 H   0  0  0  0  0  0  0  0  0  0  0  0
  1  2  1  0
  2  3  2  0
  3  4  1  0
  4  5  1  0
  5  6  2  0
  6  7  1  0
  7  8  1  0
  8  9  2  0
  9 10  1  0
 10 11  1  0
 11 12  1  0
 12 13  1  0
 13 14  1  0
 14 15  1  0
 10 16  2  0
 16 17  1  0
 17 18  1  0
 18 19  1  0
 18 20  1  0
 18 21  1  0
 17 22  2  0
  7 23  1  1
 23 24  1  0
 23 25  1  0
  7 26  1  0
 26 27  1  0
 27 28  3  0
 26 29  2  0
 29 30  1  0
 29 31  1  0
  6  2  1  0
 22  8  1  0
 31  5  1  0
 15 11  1  0
  1 32  1  0
  1 33  1  0
  1 34  1  0
  4 35  1  0
  9 36  1  0
 12 37  1  0
 12 38  1  0
 13 39  1  0
 13 40  1  0
 14 41  1  0
 14 42  1  0
 15 43  1  0
 15 44  1  0
 16 45  1  0
 22 46  1  0
 23 47  1  0
 24 48  1  0
 24 49  1  0
 24 50  1  0
 25 51  1  0
 25 52  1  0
 25 53  1  0
 30 54  1  0
 30 55  1  0
M  END
>  <tautomer smiles>  (4) 
Cc1n[nH]c2c1[C@](c1cc(N3CCCC3)cc(C(F)(F)F)c1)(C(C)C)C(C#N)=C(N)O2

>  <protonation smiles>  (4) 
Cc1n[nH]c2c1[C@](c1cc(N3CCCC3)cc(C(F)(F)F)c1)(C(C)C)C(C#N)=C(N)O2

>  <Score>  (4) 
3.52

>  <Label>  (4) 
high_energy

$$$$

     RDKit          3D

 56 59  0  0  0  0  0  0  0  0999 V2000
   -2.4171    2.4545   -1.9249 C   0  0  0  0  0  0  0  0  0  0  0  0
   -3.1640    1.7109   -0.8631 C   0  0  0  0  0  0  0  0  0  0  0  0
   -4.3983    2.0755   -0.4468 N   0  0  0  0  0  0  0  0  0  0  0  0
   -4.7738    1.2297    0.5000 N   0  0  0  0  0  0  0  0  0  0  0  0
   -3.7935    0.3348    0.6809 C   0  0  0  0  0  0  0  0  0  0  0  0
   -2.7506    0.5776   -0.1553 C   0  0  0  0  0  0  0  0  0  0  0  0
   -1.4781   -0.2798   -0.1898 C   0  0  2  0  0  0  0  0  0  0  0  0
   -0.2554    0.5951    0.2495 C   0  0  0  0  0  0  0  0  0  0  0  0
    1.0619    0.0838    0.2238 C   0  0  0  0  0  0  0  0  0  0  0  0
    2.1769    0.8472    0.6206 C   0  0  0  0  0  0  0  0  0  0  0  0
    3.5255    0.3020    0.5454 N   0  0  0  0  0  4  0  0  0  0  0  0
    3.7061   -0.8512    1.4521 C   0  0  0  0  0  0  0  0  0  0  0  0
    4.3785   -1.9600    0.6598 C   0  0  0  0  0  0  0  0  0  0  0  0
    4.0497   -1.6541   -0.7817 C   0  0  0  0  0  0  0  0  0  0  0  0
    3.8745   -0.1458   -0.8194 C   0  0  0  0  0  0  0  0  0  0  0  0
    1.9686    2.1382    1.1214 C   0  0  0  0  0  0  0  0  0  0  0  0
    0.6730    2.6444    1.2716 C   0  0  0  0  0  0  0  0  0  0  0  0
    0.4457    4.0340    1.8177 C   0  0  0  0  0  0  0  0  0  0  0  0
    0.2521    4.9091    0.7652 F   0  0  0  0  0  0  0  0  0  0  0  0
   -0.6735    4.0531    2.6317 F   0  0  0  0  0  0  0  0  0  0  0  0
    1.5289    4.4636    2.5653 F   0  0  0  0  0  0  0  0  0  0  0  0
   -0.4201    1.8760    0.8417 C   0  0  0  0  0  0  0  0  0  0  0  0
   -1.4127   -0.8388   -1.6856 C   0  0  0  0  0  0  0  0  0  0  0  0
   -2.5570   -1.8348   -1.9812 C   0  0  0  0  0  0  0  0  0  0  0  0
   -0.0928   -1.4523   -2.1856 C   0  0  0  0  0  0  0  0  0  0  0  0
   -1.6283   -1.4495    0.8381 C   0  0  0  0  0  0  0  0  0  0  0  0
   -0.5728   -2.4365    0.9365 C   0  0  0  0  0  0  0  0  0  0  0  0
    0.2669   -3.2289    1.0222 N   0  0  0  0  0  0  0  0  0  0  0  0
   -2.7227   -1.5984    1.6475 C   0  0  0  0  0  0  0  0  0  0  0  0
   -2.8202   -2.6719    2.5948 N   0  0  0  0  0  0  0  0  0  0  0  0
   -3.8050   -0.7117    1.5819 O   0  0  0  0  0  0  0  0  0  0  0  0
   -2.6411    3.5389   -1.8478 H   0  0  0  0  0  0  0  0  0  0  0  0
   -1.3223    2.3172   -1.8136 H   0  0  0  0  0  0  0  0  0  0  0  0
   -2.7356    2.0928   -2.9243 H   0  0  0  0  0  0  0  0  0  0  0  0
   -5.6852    1.2701    1.0070 H   0  0  0  0  0  0  0  0  0  0  0  0
    1.2536   -0.9255   -0.0815 H   0  0  0  0  0  0  0  0  0  0  0  0
    4.2183    1.0389    0.8232 H   0  0  0  0  0  0  0  0  0  0  0  0
    2.7403   -1.2338    1.8552 H   0  0  0  0  0  0  0  0  0  0  0  0
    4.3370   -0.5723    2.3262 H   0  0  0  0  0  0  0  0  0  0  0  0
    5.4799   -1.9133    0.8093 H   0  0  0  0  0  0  0  0  0  0  0  0
    4.0055   -2.9639    0.9582 H   0  0  0  0  0  0  0  0  0  0  0  0
    4.8593   -1.9910   -1.4649 H   0  0  0  0  0  0  0  0  0  0  0  0
    3.0975   -2.1538   -1.0653 H   0  0  0  0  0  0  0  0  0  0  0  0
    4.8392    0.3154   -1.1338 H   0  0  0  0  0  0  0  0  0  0  0  0
    3.1165    0.1400   -1.5840 H   0  0  0  0  0  0  0  0  0  0  0  0
    2.8200    2.7373    1.4189 H   0  0  0  0  0  0  0  0  0  0  0  0
   -1.3995    2.3010    0.9940 H   0  0  0  0  0  0  0  0  0  0  0  0
   -1.5737    0.0104   -2.3780 H   0  0  0  0  0  0  0  0  0  0  0  0
   -3.5447   -1.4087   -1.7101 H   0  0  0  0  0  0  0  0  0  0  0  0
   -2.4104   -2.7829   -1.4222 H   0  0  0  0  0  0  0  0  0  0  0  0
   -2.5918   -2.0730   -3.0661 H   0  0  0  0  0  0  0  0  0  0  0  0
   -0.2194   -1.8284   -3.2238 H   0  0  0  0  0  0  0  0  0  0  0  0
    0.2289   -2.3134   -1.5703 H   0  0  0  0  0  0  0  0  0  0  0  0
    0.7014   -0.6818   -2.2521 H   0  0  0  0  0  0  0  0  0  0  0  0
   -2.0687   -3.3816    2.7378 H   0  0  0  0  0  0  0  0  0  0  0  0
   -3.6774   -2.7543    3.1850 H   0  0  0  0  0  0  0  0  0  0  0  0
  1  2  1  0
  2  3  2  0
  3  4  1  0
  4  5  1  0
  5  6  2  0
  6  7  1  0
  7  8  1  0
  8  9  2  0
  9 10  1  0
 10 11  1  0
 11 12  1  0
 12 13  1  0
 13 14  1  0
 14 15  1  0
 10 16  2  0
 16 17  1  0
 17 18  1  0
 18 19  1  0
 18 20  1  0
 18 21  1  0
 17 22  2  0
  7 23  1  6
 23 24  1  0
 23 25  1  0
  7 26  1  0
 26 27  1  0
 27 28  3  0
 26 29  2  0
 29 30  1  0
 29 31  1  0
  6  2  1  0
 22  8  1  0
 31  5  1  0
 15 11  1  0
  1 32  1  0
  1 33  1  0
  1 34  1  0
  4 35  1  0
  9 36  1  0
 11 37  1  0
 12 38  1  0
 12 39  1  0
 13 40  1  0
 13 41  1  0
 14 42  1  0
 14 43  1  0
 15 44  1  0
 15 45  1  0
 16 46  1  0
 22 47  1  0
 23 48  1  0
 24 49  1  0
 24 50  1  0
 24 51  1  0
 25 52  1  0
 25 53  1  0
 25 54  1  0
 30 55  1  0
 30 56  1  0
M  CHG  1  11   1
M  END
>  <tautomer smiles>  (5) 
Cc1n[nH]c2c1[C@](c1cc(N3CCCC3)cc(C(F)(F)F)c1)(C(C)C)C(C#N)=C(N)O2

>  <protonation smiles>  (5) 
Cc1n[nH]c2c1[C@](c1cc([NH+]3CCCC3)cc(C(F)(F)F)c1)(C(C)C)C(C#N)=C(N)O2

>  <Score>  (5) 
3.52

>  <Label>  (5) 
high_energy

$$$$

     RDKit          3D

 55 58  0  0  0  0  0  0  0  0999 V2000
   -0.9808   -1.1898   -2.3689 C   0  0  0  0  0  0  0  0  0  0  0  0
   -1.7880    0.0242   -2.0263 C   0  0  0  0  0  0  0  0  0  0  0  0
   -2.3917    0.7684   -2.9805 N   0  0  0  0  0  0  0  0  0  0  0  0
   -3.0079    1.7783   -2.3886 N   0  0  0  0  0  0  0  0  0  0  0  0
   -2.8004    1.6902   -1.0689 C   0  0  0  0  0  0  0  0  0  0  0  0
   -2.0155    0.6041   -0.7706 C   0  0  0  0  0  0  0  0  0  0  0  0
   -1.6955    0.1846    0.6731 C   0  0  2  0  0  0  0  0  0  0  0  0
   -0.2341   -0.3383    0.8036 C   0  0  0  0  0  0  0  0  0  0  0  0
    0.7856    0.1374   -0.0544 C   0  0  0  0  0  0  0  0  0  0  0  0
    2.1256   -0.2634    0.0903 C   0  0  0  0  0  0  0  0  0  0  0  0
    3.1432    0.2219   -0.8188 N   0  0  0  0  0  0  0  0  0  0  0  0
    4.5716    0.0111   -0.6303 C   0  0  0  0  0  0  0  0  0  0  0  0
    5.2606    0.8197   -1.7203 C   0  0  0  0  0  0  0  0  0  0  0  0
    4.1880    1.1020   -2.7649 C   0  0  0  0  0  0  0  0  0  0  0  0
    2.8586    0.9683   -2.0365 C   0  0  0  0  0  0  0  0  0  0  0  0
    2.4600   -1.1287    1.1443 C   0  0  0  0  0  0  0  0  0  0  0  0
    1.4850   -1.5758    2.0457 C   0  0  0  0  0  0  0  0  0  0  0  0
    1.8750   -2.4282    3.2290 C   0  0  0  0  0  0  0  0  0  0  0  0
    2.1884   -1.6079    4.2966 F   0  0  0  0  0  0  0  0  0  0  0  0
    2.9729   -3.2159    2.9282 F   0  0  0  0  0  0  0  0  0  0  0  0
    0.8332   -3.2640    3.5930 F   0  0  0  0  0  0  0  0  0  0  0  0
    0.1609   -1.1365    1.8994 C   0  0  0  0  0  0  0  0  0  0  0  0
   -2.7541   -0.9209    1.1270 C   0  0  0  0  0  0  0  0  0  0  0  0
   -4.2333   -0.4964    1.0011 C   0  0  0  0  0  0  0  0  0  0  0  0
   -2.5860   -2.2796    0.4186 C   0  0  0  0  0  0  0  0  0  0  0  0
   -1.8366    1.4646    1.6155 C   0  0  0  0  0  0  0  0  0  0  0  0
   -0.6281    2.3147    1.6348 C   0  0  0  0  0  0  0  0  0  0  0  0
    0.3176    2.9817    1.6513 N   0  0  0  0  0  0  0  0  0  0  0  0
   -2.9810    2.3836    1.2293 C   0  0  0  0  0  0  0  0  0  0  0  0
   -3.6010    3.0611    2.1410 N   0  0  0  0  0  0  0  0  0  0  0  0
   -3.3341    2.5458   -0.1139 O   0  0  0  0  0  0  0  0  0  0  0  0
   -0.6234   -1.7265   -1.4726 H   0  0  0  0  0  0  0  0  0  0  0  0
   -1.6011   -1.8855   -2.9711 H   0  0  0  0  0  0  0  0  0  0  0  0
   -0.0998   -0.8848   -2.9702 H   0  0  0  0  0  0  0  0  0  0  0  0
   -3.5696    2.5046   -2.8849 H   0  0  0  0  0  0  0  0  0  0  0  0
    0.5394    0.8528   -0.8238 H   0  0  0  0  0  0  0  0  0  0  0  0
    4.8085   -1.0690   -0.7454 H   0  0  0  0  0  0  0  0  0  0  0  0
    4.8891    0.3685    0.3734 H   0  0  0  0  0  0  0  0  0  0  0  0
    5.6268    1.7811   -1.2970 H   0  0  0  0  0  0  0  0  0  0  0  0
    6.1173    0.2635   -2.1590 H   0  0  0  0  0  0  0  0  0  0  0  0
    4.3092    2.1147   -3.2071 H   0  0  0  0  0  0  0  0  0  0  0  0
    4.2491    0.3401   -3.5731 H   0  0  0  0  0  0  0  0  0  0  0  0
    2.4614    1.9732   -1.7748 H   0  0  0  0  0  0  0  0  0  0  0  0
    2.1269    0.4198   -2.6684 H   0  0  0  0  0  0  0  0  0  0  0  0
    3.4857   -1.4423    1.2819 H   0  0  0  0  0  0  0  0  0  0  0  0
   -0.5512   -1.4193    2.6578 H   0  0  0  0  0  0  0  0  0  0  0  0
   -2.6206   -1.1151    2.2109 H   0  0  0  0  0  0  0  0  0  0  0  0
   -4.8988   -1.3349    1.2997 H   0  0  0  0  0  0  0  0  0  0  0  0
   -4.4721    0.3376    1.6883 H   0  0  0  0  0  0  0  0  0  0  0  0
   -4.4930   -0.2183   -0.0407 H   0  0  0  0  0  0  0  0  0  0  0  0
   -1.5473   -2.6575    0.4833 H   0  0  0  0  0  0  0  0  0  0  0  0
   -2.8929   -2.2114   -0.6448 H   0  0  0  0  0  0  0  0  0  0  0  0
   -3.2321   -3.0412    0.9057 H   0  0  0  0  0  0  0  0  0  0  0  0
   -1.9921    1.1206    2.6617 H   0  0  0  0  0  0  0  0  0  0  0  0
   -4.3775    3.7130    1.8913 H   0  0  0  0  0  0  0  0  0  0  0  0
  1  2  1  0
  2  3  2  0
  3  4  1  0
  4  5  1  0
  5  6  2  0
  6  7  1  0
  7  8  1  0
  8  9  2  0
  9 10  1  0
 10 11  1  0
 11 12  1  0
 12 13  1  0
 13 14  1  0
 14 15  1  0
 10 16  2  0
 16 17  1  0
 17 18  1  0
 18 19  1  0
 18 20  1  0
 18 21  1  0
 17 22  2  0
  7 23  1  1
 23 24  1  0
 23 25  1  0
  7 26  1  0
 26 27  1  0
 27 28  3  0
 26 29  1  0
 29 30  2  3
 29 31  1  0
  6  2  1  0
 22  8  1  0
 31  5  1  0
 15 11  1  0
  1 32  1  0
  1 33  1  0
  1 34  1  0
  4 35  1  0
  9 36  1  0
 12 37  1  0
 12 38  1  0
 13 39  1  0
 13 40  1  0
 14 41  1  0
 14 42  1  0
 15 43  1  0
 15 44  1  0
 16 45  1  0
 22 46  1  0
 23 47  1  0
 24 48  1  0
 24 49  1  0
 24 50  1  0
 25 51  1  0
 25 52  1  0
 25 53  1  0
 26 54  1  0
 30 55  1  0
M  END
>  <tautomer smiles>  (6) 
Cc1n[nH]c2c1[C@](c1cc(N3CCCC3)cc(C(F)(F)F)c1)(C(C)C)C(C#N)C(=N)O2

>  <protonation smiles>  (6) 
Cc1n[nH]c2c1[C@](c1cc(N3CCCC3)cc(C(F)(F)F)c1)(C(C)C)C(C#N)C(=N)O2

>  <Score>  (6) 
5.47

>  <Label>  (6) 
high_energy

$$$$

     RDKit          3D

 55 58  0  0  0  0  0  0  0  0999 V2000
   -1.7675   -0.3461    2.7088 C   0  0  0  0  0  0  0  0  0  0  0  0
   -2.5594   -0.5743    1.4605 C   0  0  0  0  0  0  0  0  0  0  0  0
   -3.2211   -1.6744    1.3116 N   0  0  0  0  0  0  0  0  0  0  0  0
   -3.9268   -1.6483    0.1136 N   0  0  0  0  0  0  0  0  0  0  0  0
   -3.7128   -0.5215   -0.4662 C   0  0  0  0  0  0  0  0  0  0  0  0
   -4.1174   -0.2763   -1.7604 O   0  0  0  0  0  0  0  0  0  0  0  0
   -3.4356    0.6488   -2.5386 C   0  0  0  0  0  0  0  0  0  0  0  0
   -3.8725    0.9004   -3.7321 N   0  0  0  0  0  0  0  0  0  0  0  0
   -2.2234    1.3978   -2.0117 C   0  0  0  0  0  0  0  0  0  0  0  0
   -1.1487    1.3620   -3.0293 C   0  0  0  0  0  0  0  0  0  0  0  0
   -0.3082    1.3341   -3.8245 N   0  0  0  0  0  0  0  0  0  0  0  0
   -1.6867    1.0233   -0.5327 C   0  0  1  0  0  0  0  0  0  0  0  0
   -0.5549   -0.0541   -0.6227 C   0  0  0  0  0  0  0  0  0  0  0  0
    0.6606    0.0328    0.0901 C   0  0  0  0  0  0  0  0  0  0  0  0
    1.6344   -0.9818    0.0337 C   0  0  0  0  0  0  0  0  0  0  0  0
    2.8756   -0.8552    0.7700 N   0  0  0  0  0  0  0  0  0  0  0  0
    4.0112   -1.7530    0.6124 C   0  0  0  0  0  0  0  0  0  0  0  0
    5.1345   -1.1558    1.4479 C   0  0  0  0  0  0  0  0  0  0  0  0
    4.4608   -0.1872    2.4117 C   0  0  0  0  0  0  0  0  0  0  0  0
    3.1302    0.1747    1.7679 C   0  0  0  0  0  0  0  0  0  0  0  0
    1.3811   -2.1189   -0.7485 C   0  0  0  0  0  0  0  0  0  0  0  0
    0.1741   -2.2570   -1.4431 C   0  0  0  0  0  0  0  0  0  0  0  0
   -0.0749   -3.4634   -2.3158 C   0  0  0  0  0  0  0  0  0  0  0  0
   -1.4225   -3.7797   -2.3353 F   0  0  0  0  0  0  0  0  0  0  0  0
    0.3411   -3.1853   -3.6044 F   0  0  0  0  0  0  0  0  0  0  0  0
    0.6186   -4.5657   -1.8464 F   0  0  0  0  0  0  0  0  0  0  0  0
   -0.7680   -1.2209   -1.3914 C   0  0  0  0  0  0  0  0  0  0  0  0
   -1.2451    2.4417    0.0915 C   0  0  0  0  0  0  0  0  0  0  0  0
   -1.0802    2.5764    1.6198 C   0  0  0  0  0  0  0  0  0  0  0  0
   -0.0811    3.1399   -0.6573 C   0  0  0  0  0  0  0  0  0  0  0  0
   -2.8682    0.4144    0.3361 C   0  0  0  0  0  0  0  0  0  0  0  0
   -1.7520   -1.2719    3.3227 H   0  0  0  0  0  0  0  0  0  0  0  0
   -2.2331    0.4490    3.3237 H   0  0  0  0  0  0  0  0  0  0  0  0
   -0.7172   -0.1094    2.4648 H   0  0  0  0  0  0  0  0  0  0  0  0
   -4.7117    0.4101   -4.1143 H   0  0  0  0  0  0  0  0  0  0  0  0
   -2.5844    2.4474   -2.0237 H   0  0  0  0  0  0  0  0  0  0  0  0
    0.8835    0.8967    0.6750 H   0  0  0  0  0  0  0  0  0  0  0  0
    4.3147   -1.8136   -0.4554 H   0  0  0  0  0  0  0  0  0  0  0  0
    3.7452   -2.7628    0.9936 H   0  0  0  0  0  0  0  0  0  0  0  0
    5.8330   -0.5952    0.7880 H   0  0  0  0  0  0  0  0  0  0  0  0
    5.6989   -1.9434    1.9929 H   0  0  0  0  0  0  0  0  0  0  0  0
    5.0875    0.7146    2.5845 H   0  0  0  0  0  0  0  0  0  0  0  0
    4.2789   -0.6982    3.3828 H   0  0  0  0  0  0  0  0  0  0  0  0
    3.2016    1.1670    1.2715 H   0  0  0  0  0  0  0  0  0  0  0  0
    2.3223    0.1857    2.5321 H   0  0  0  0  0  0  0  0  0  0  0  0
    2.1204   -2.9051   -0.8166 H   0  0  0  0  0  0  0  0  0  0  0  0
   -1.6717   -1.3298   -1.9697 H   0  0  0  0  0  0  0  0  0  0  0  0
   -2.1121    3.1240   -0.0634 H   0  0  0  0  0  0  0  0  0  0  0  0
   -2.0225    2.3202    2.1373 H   0  0  0  0  0  0  0  0  0  0  0  0
   -0.2366    2.0117    2.0439 H   0  0  0  0  0  0  0  0  0  0  0  0
   -0.8957    3.6411    1.8802 H   0  0  0  0  0  0  0  0  0  0  0  0
    0.3531    3.9656   -0.0547 H   0  0  0  0  0  0  0  0  0  0  0  0
    0.7373    2.4489   -0.9299 H   0  0  0  0  0  0  0  0  0  0  0  0
   -0.4520    3.6017   -1.5959 H   0  0  0  0  0  0  0  0  0  0  0  0
   -3.5347    1.2184    0.7153 H   0  0  0  0  0  0  0  0  0  0  0  0
  1  2  1  0
  2  3  2  0
  3  4  1  0
  4  5  2  0
  5  6  1  0
  6  7  1  0
  7  8  2  3
  7  9  1  0
  9 10  1  0
 10 11  3  0
  9 12  1  0
 12 13  1  0
 13 14  2  0
 14 15  1  0
 15 16  1  0
 16 17  1  0
 17 18  1  0
 18 19  1  0
 19 20  1  0
 15 21  2  0
 21 22  1  0
 22 23  1  0
 23 24  1  0
 23 25  1  0
 23 26  1  0
 22 27  2  0
 12 28  1  1
 28 29  1  0
 28 30  1  0
 12 31  1  0
 31  2  1  0
 31  5  1  0
 27 13  1  0
 20 16  1  0
  1 32  1  0
  1 33  1  0
  1 34  1  0
  8 35  1  0
  9 36  1  0
 14 37  1  0
 17 38  1  0
 17 39  1  0
 18 40  1  0
 18 41  1  0
 19 42  1  0
 19 43  1  0
 20 44  1  0
 20 45  1  0
 21 46  1  0
 27 47  1  0
 28 48  1  0
 29 49  1  0
 29 50  1  0
 29 51  1  0
 30 52  1  0
 30 53  1  0
 30 54  1  0
 31 55  1  0
M  END
>  <tautomer smiles>  (7) 
CC1=NN=C2OC(=N)C(C#N)[C@@](c3cc(N4CCCC4)cc(C(F)(F)F)c3)(C(C)C)C12

>  <protonation smiles>  (7) 
CC1=NN=C2OC(=N)C(C#N)[C@@](c3cc(N4CCCC4)cc(C(F)(F)F)c3)(C(C)C)C12

>  <Score>  (7) 
11.47

>  <Label>  (7) 
high_energy

$$$$

     RDKit          3D

 54 57  0  0  0  0  0  0  0  0999 V2000
   -3.4546   -1.3484    2.5139 C   0  0  0  0  0  0  0  0  0  0  0  0
   -2.9804   -1.8167    1.1676 C   0  0  0  0  0  0  0  0  0  0  0  0
   -3.2235   -3.0381    0.8136 N   0  0  0  0  0  0  0  0  0  0  0  0
   -2.4207   -3.4079   -0.2627 N   0  0  0  0  0  0  0  0  0  0  0  0
   -1.6294   -2.4341   -0.5373 C   0  0  0  0  0  0  0  0  0  0  0  0
   -0.9825   -2.3409   -1.7646 O   0  0  0  0  0  0  0  0  0  0  0  0
   -1.1472   -1.1588   -2.4866 C   0  0  0  0  0  0  0  0  0  0  0  0
   -0.5480   -0.9993   -3.6200 N   0  0  0  0  0  2  0  0  0  0  0  0
   -2.0675   -0.0935   -1.9307 C   0  0  0  0  0  0  0  0  0  0  0  0
   -3.4455   -0.5444   -2.1897 C   0  0  0  0  0  0  0  0  0  0  0  0
   -4.5244   -0.9058   -2.4030 N   0  0  0  0  0  0  0  0  0  0  0  0
   -1.7282    0.1270   -0.3986 C   0  0  1  0  0  0  0  0  0  0  0  0
   -0.2428    0.6695   -0.4242 C   0  0  0  0  0  0  0  0  0  0  0  0
    0.8832   -0.1629   -0.1807 C   0  0  0  0  0  0  0  0  0  0  0  0
    2.2014    0.3302   -0.2068 C   0  0  0  0  0  0  0  0  0  0  0  0
    3.3222   -0.5345    0.1043 N   0  0  0  0  0  0  0  0  0  0  0  0
    3.2215   -1.9791    0.2618 C   0  0  0  0  0  0  0  0  0  0  0  0
    4.6490   -2.4843    0.4139 C   0  0  0  0  0  0  0  0  0  0  0  0
    5.4806   -1.2637    0.7868 C   0  0  0  0  0  0  0  0  0  0  0  0
    4.6846   -0.0599    0.3035 C   0  0  0  0  0  0  0  0  0  0  0  0
    2.4132    1.6717   -0.5537 C   0  0  0  0  0  0  0  0  0  0  0  0
    1.3449    2.4887   -0.9370 C   0  0  0  0  0  0  0  0  0  0  0  0
    1.5807    3.9255   -1.3401 C   0  0  0  0  0  0  0  0  0  0  0  0
    0.7144    4.2908   -2.3560 F   0  0  0  0  0  0  0  0  0  0  0  0
    2.8757    4.1128   -1.7925 F   0  0  0  0  0  0  0  0  0  0  0  0
    1.3645    4.7445   -0.2477 F   0  0  0  0  0  0  0  0  0  0  0  0
    0.0378    1.9849   -0.8757 C   0  0  0  0  0  0  0  0  0  0  0  0
   -2.6524    1.2504    0.2571 C   0  0  0  0  0  0  0  0  0  0  0  0
   -2.1480    1.6752    1.6575 C   0  0  0  0  0  0  0  0  0  0  0  0
   -4.1851    1.0172    0.2244 C   0  0  0  0  0  0  0  0  0  0  0  0
   -1.7819   -1.2712    0.4092 C   0  0  0  0  0  0  0  0  0  0  0  0
   -4.2988   -1.9815    2.8613 H   0  0  0  0  0  0  0  0  0  0  0  0
   -2.6271   -1.4356    3.2483 H   0  0  0  0  0  0  0  0  0  0  0  0
   -3.8194   -0.3083    2.4968 H   0  0  0  0  0  0  0  0  0  0  0  0
   -1.9244    0.8554   -2.4931 H   0  0  0  0  0  0  0  0  0  0  0  0
    0.7604   -1.2133    0.0058 H   0  0  0  0  0  0  0  0  0  0  0  0
    2.7453   -2.4366   -0.6329 H   0  0  0  0  0  0  0  0  0  0  0  0
    2.6314   -2.2158    1.1739 H   0  0  0  0  0  0  0  0  0  0  0  0
    5.0062   -2.8926   -0.5573 H   0  0  0  0  0  0  0  0  0  0  0  0
    4.7195   -3.2758    1.1913 H   0  0  0  0  0  0  0  0  0  0  0  0
    5.5938   -1.2170    1.8924 H   0  0  0  0  0  0  0  0  0  0  0  0
    6.4877   -1.3003    0.3174 H   0  0  0  0  0  0  0  0  0  0  0  0
    5.0962    0.3103   -0.6606 H   0  0  0  0  0  0  0  0  0  0  0  0
    4.7082    0.7486    1.0662 H   0  0  0  0  0  0  0  0  0  0  0  0
    3.4162    2.0747   -0.5666 H   0  0  0  0  0  0  0  0  0  0  0  0
   -0.7499    2.6358   -1.2151 H   0  0  0  0  0  0  0  0  0  0  0  0
   -2.5717    2.1701   -0.3505 H   0  0  0  0  0  0  0  0  0  0  0  0
   -2.9089    2.2657    2.2093 H   0  0  0  0  0  0  0  0  0  0  0  0
   -1.8452    0.8079    2.2731 H   0  0  0  0  0  0  0  0  0  0  0  0
   -1.2540    2.3258    1.5599 H   0  0  0  0  0  0  0  0  0  0  0  0
   -4.7031    1.5661    1.0384 H   0  0  0  0  0  0  0  0  0  0  0  0
   -4.6085    1.4121   -0.7244 H   0  0  0  0  0  0  0  0  0  0  0  0
   -4.4812   -0.0415    0.2825 H   0  0  0  0  0  0  0  0  0  0  0  0
   -0.9845   -1.2992    1.1780 H   0  0  0  0  0  0  0  0  0  0  0  0
  1  2  1  0
  2  3  2  0
  3  4  1  0
  4  5  2  0
  5  6  1  0
  6  7  1  0
  7  8  2  0
  7  9  1  0
  9 10  1  0
 10 11  3  0
  9 12  1  0
 12 13  1  0
 13 14  2  0
 14 15  1  0
 15 16  1  0
 16 17  1  0
 17 18  1  0
 18 19  1  0
 19 20  1  0
 15 21  2  0
 21 22  1  0
 22 23  1  0
 23 24  1  0
 23 25  1  0
 23 26  1  0
 22 27  2  0
 12 28  1  1
 28 29  1  0
 28 30  1  0
 12 31  1  0
 31  2  1  0
 31  5  1  0
 27 13  1  0
 20 16  1  0
  1 32  1  0
  1 33  1  0
  1 34  1  0
  9 35  1  0
 14 36  1  0
 17 37  1  0
 17 38  1  0
 18 39  1  0
 18 40  1  0
 19 41  1  0
 19 42  1  0
 20 43  1  0
 20 44  1  0
 21 45  1  0
 27 46  1  0
 28 47  1  0
 29 48  1  0
 29 49  1  0
 29 50  1  0
 30 51  1  0
 30 52  1  0
 30 53  1  0
 31 54  1  0
M  CHG  1   8  -1
M  END
>  <tautomer smiles>  (8) 
CC1=NN=C2OC(=N)C(C#N)[C@@](c3cc(N4CCCC4)cc(C(F)(F)F)c3)(C(C)C)C12

>  <protonation smiles>  (8) 
CC1=NN=C2OC(=[N-])C(C#N)[C@@](c3cc(N4CCCC4)cc(C(F)(F)F)c3)(C(C)C)C12

>  <Score>  (8) 
11.47

>  <Label>  (8) 
high_energy

$$$$

     RDKit          3D

 55 58  0  0  0  0  0  0  0  0999 V2000
   -0.2045    2.8387   -1.7283 C   0  0  0  0  0  0  0  0  0  0  0  0
   -1.1776    2.4374   -0.6669 C   0  0  0  0  0  0  0  0  0  0  0  0
   -1.4128    3.2004    0.3523 N   0  0  0  0  0  0  0  0  0  0  0  0
   -2.5128    2.7163    1.0634 N   0  0  0  0  0  0  0  0  0  0  0  0
   -2.9578    1.6763    0.4508 C   0  0  0  0  0  0  0  0  0  0  0  0
   -3.9581    0.8539    0.9326 O   0  0  0  0  0  0  0  0  0  0  0  0
   -4.0139   -0.4803    0.5086 C   0  0  0  0  0  0  0  0  0  0  0  0
   -5.1463   -1.2570    0.9216 N   0  0  0  0  0  0  0  0  0  0  0  0
   -2.9940   -1.0256   -0.2224 C   0  0  0  0  0  0  0  0  0  0  0  0
   -2.9612   -2.4660   -0.3702 C   0  0  0  0  0  0  0  0  0  0  0  0
   -2.9435   -3.6185   -0.4769 N   0  0  0  0  0  0  0  0  0  0  0  0
   -1.7574   -0.1769   -0.6752 C   0  0  1  0  0  0  0  0  0  0  0  0
   -0.6167   -0.2945    0.3845 C   0  0  0  0  0  0  0  0  0  0  0  0
    0.7278   -0.0119    0.0465 C   0  0  0  0  0  0  0  0  0  0  0  0
    1.7626   -0.0659    0.9989 C   0  0  0  0  0  0  0  0  0  0  0  0
    3.1352    0.1997    0.6180 N   0  0  0  0  0  0  0  0  0  0  0  0
    3.5402    0.6882   -0.6928 C   0  0  0  0  0  0  0  0  0  0  0  0
    5.0358    0.9530   -0.5978 C   0  0  0  0  0  0  0  0  0  0  0  0
    5.5139    0.1870    0.6290 C   0  0  0  0  0  0  0  0  0  0  0  0
    4.2784   -0.0209    1.4931 C   0  0  0  0  0  0  0  0  0  0  0  0
    1.4398   -0.3811    2.3281 C   0  0  0  0  0  0  0  0  0  0  0  0
    0.1190   -0.6559    2.7028 C   0  0  0  0  0  0  0  0  0  0  0  0
   -0.2241   -0.9259    4.1482 C   0  0  0  0  0  0  0  0  0  0  0  0
   -1.3070   -1.7834    4.2402 F   0  0  0  0  0  0  0  0  0  0  0  0
   -0.5402    0.2671    4.7706 F   0  0  0  0  0  0  0  0  0  0  0  0
    0.8434   -1.5097    4.8085 F   0  0  0  0  0  0  0  0  0  0  0  0
   -0.8981   -0.5783    1.7409 C   0  0  0  0  0  0  0  0  0  0  0  0
   -1.2753   -0.6547   -2.1209 C   0  0  0  0  0  0  0  0  0  0  0  0
   -2.3873   -0.6570   -3.1952 C   0  0  0  0  0  0  0  0  0  0  0  0
   -0.5453   -2.0216   -2.1555 C   0  0  0  0  0  0  0  0  0  0  0  0
   -2.2033    1.3358   -0.7692 C   0  0  0  0  0  0  0  0  0  0  0  0
   -0.3769    2.2738   -2.6643 H   0  0  0  0  0  0  0  0  0  0  0  0
   -0.3322    3.9172   -1.9592 H   0  0  0  0  0  0  0  0  0  0  0  0
    0.8307    2.6722   -1.3705 H   0  0  0  0  0  0  0  0  0  0  0  0
   -5.3070   -2.2386    0.6054 H   0  0  0  0  0  0  0  0  0  0  0  0
   -5.8742   -0.8175    1.5272 H   0  0  0  0  0  0  0  0  0  0  0  0
    0.9807    0.2466   -0.9660 H   0  0  0  0  0  0  0  0  0  0  0  0
    3.0014    1.6269   -0.9422 H   0  0  0  0  0  0  0  0  0  0  0  0
    3.3353   -0.0884   -1.4616 H   0  0  0  0  0  0  0  0  0  0  0  0
    5.5666    0.6197   -1.5160 H   0  0  0  0  0  0  0  0  0  0  0  0
    5.2138    2.0407   -0.4472 H   0  0  0  0  0  0  0  0  0  0  0  0
    5.9197   -0.7997    0.3140 H   0  0  0  0  0  0  0  0  0  0  0  0
    6.3023    0.7486    1.1757 H   0  0  0  0  0  0  0  0  0  0  0  0
    4.2644   -1.0556    1.8998 H   0  0  0  0  0  0  0  0  0  0  0  0
    4.2608    0.7177    2.3237 H   0  0  0  0  0  0  0  0  0  0  0  0
    2.2139   -0.3989    3.0829 H   0  0  0  0  0  0  0  0  0  0  0  0
   -1.9124   -0.7339    2.0725 H   0  0  0  0  0  0  0  0  0  0  0  0
   -0.5367    0.0780   -2.4932 H   0  0  0  0  0  0  0  0  0  0  0  0
   -2.0004   -1.0916   -4.1423 H   0  0  0  0  0  0  0  0  0  0  0  0
   -2.7195    0.3695   -3.4442 H   0  0  0  0  0  0  0  0  0  0  0  0
   -3.2638   -1.2581   -2.8787 H   0  0  0  0  0  0  0  0  0  0  0  0
   -0.0125   -2.2554   -1.2137 H   0  0  0  0  0  0  0  0  0  0  0  0
   -1.2448   -2.8551   -2.3698 H   0  0  0  0  0  0  0  0  0  0  0  0
    0.2067   -2.0198   -2.9737 H   0  0  0  0  0  0  0  0  0  0  0  0
   -2.8751    1.5330   -1.6262 H   0  0  0  0  0  0  0  0  0  0  0  0
  1  2  1  0
  2  3  2  0
  3  4  1  0
  4  5  2  0
  5  6  1  0
  6  7  1  0
  7  8  1  0
  7  9  2  0
  9 10  1  0
 10 11  3  0
  9 12  1  0
 12 13  1  0
 13 14  2  0
 14 15  1  0
 15 16  1  0
 16 17  1  0
 17 18  1  0
 18 19  1  0
 19 20  1  0
 15 21  2  0
 21 22  1  0
 22 23  1  0
 23 24  1  0
 23 25  1  0
 23 26  1  0
 22 27  2  0
 12 28  1  6
 28 29  1  0
 28 30  1  0
 12 31  1  0
 31  2  1  0
 31  5  1  0
 27 13  1  0
 20 16  1  0
  1 32  1  0
  1 33  1  0
  1 34  1  0
  8 35  1  0
  8 36  1  0
 14 37  1  0
 17 38  1  0
 17 39  1  0
 18 40  1  0
 18 41  1  0
 19 42  1  0
 19 43  1  0
 20 44  1  0
 20 45  1  0
 21 46  1  0
 27 47  1  0
 28 48  1  0
 29 49  1  0
 29 50  1  0
 29 51  1  0
 30 52  1  0
 30 53  1  0
 30 54  1  0
 31 55  1  0
M  END
>  <tautomer smiles>  (9) 
CC1=NN=C2OC(N)=C(C#N)[C@@](c3cc(N4CCCC4)cc(C(F)(F)F)c3)(C(C)C)C12

>  <protonation smiles>  (9) 
CC1=NN=C2OC(N)=C(C#N)[C@@](c3cc(N4CCCC4)cc(C(F)(F)F)c3)(C(C)C)C12

>  <Score>  (9) 
12.42

>  <Label>  (9) 
high_energy

$$$$

     RDKit          3D

 55 58  0  0  0  0  0  0  0  0999 V2000
   -1.5410    2.8300    1.2344 C   0  0  0  0  0  0  0  0  0  0  0  0
   -2.7254    1.9339    1.0341 C   0  0  0  0  0  0  0  0  0  0  0  0
   -3.9416    2.2166    1.5455 N   0  0  0  0  0  0  0  0  0  0  0  0
   -4.7818    1.2265    1.2912 N   0  0  0  0  0  0  0  0  0  0  0  0
   -4.0922    0.3028    0.6022 C   0  0  0  0  0  0  0  0  0  0  0  0
   -2.7938    0.6994    0.3853 C   0  0  0  0  0  0  0  0  0  0  0  0
   -1.7715   -0.1312   -0.4007 C   0  0  2  0  0  0  0  0  0  0  0  0
   -0.4551   -0.2285    0.4102 C   0  0  0  0  0  0  0  0  0  0  0  0
    0.8128   -0.2841   -0.2095 C   0  0  0  0  0  0  0  0  0  0  0  0
    1.9957   -0.4106    0.5423 C   0  0  0  0  0  0  0  0  0  0  0  0
    3.2886   -0.4119   -0.1107 N   0  0  0  0  0  0  0  0  0  0  0  0
    3.4918   -0.0918   -1.5168 C   0  0  0  0  0  0  0  0  0  0  0  0
    4.9992   -0.0370   -1.7190 C   0  0  0  0  0  0  0  0  0  0  0  0
    5.6014   -0.7719   -0.5280 C   0  0  0  0  0  0  0  0  0  0  0  0
    4.5407   -0.7269    0.5627 C   0  0  0  0  0  0  0  0  0  0  0  0
    1.8992   -0.5391    1.9381 C   0  0  0  0  0  0  0  0  0  0  0  0
    0.6505   -0.5877    2.5722 C   0  0  0  0  0  0  0  0  0  0  0  0
    0.5581   -0.7121    4.0736 C   0  0  0  0  0  0  0  0  0  0  0  0
   -0.5885   -1.3975    4.4365 F   0  0  0  0  0  0  0  0  0  0  0  0
    1.6482   -1.3987    4.5803 F   0  0  0  0  0  0  0  0  0  0  0  0
    0.5230    0.5518    4.6324 F   0  0  0  0  0  0  0  0  0  0  0  0
   -0.5128   -0.4297    1.8064 C   0  0  0  0  0  0  0  0  0  0  0  0
   -1.6136    0.4844   -1.8557 C   0  0  0  0  0  0  0  0  0  0  0  0
   -1.0106    1.9011   -1.8917 C   0  0  0  0  0  0  0  0  0  0  0  0
   -2.9364    0.5004   -2.6527 C   0  0  0  0  0  0  0  0  0  0  0  0
   -2.3006   -1.5746   -0.5574 C   0  0  0  0  0  0  0  0  0  0  0  0
   -1.5005   -2.5017   -1.0367 C   0  0  0  0  0  0  0  0  0  0  0  0
   -0.7225   -3.3918   -1.4990 N   0  0  0  0  0  0  0  0  0  0  0  0
   -3.7523   -1.8910   -0.3449 C   0  0  0  0  0  0  0  0  0  0  0  0
   -4.2580   -3.0451   -0.6556 N   0  0  0  0  0  0  0  0  0  0  0  0
   -4.5990   -0.9268    0.2065 O   0  0  0  0  0  0  0  0  0  0  0  0
   -1.6704    3.7558    0.6372 H   0  0  0  0  0  0  0  0  0  0  0  0
   -1.4708    3.1075    2.3067 H   0  0  0  0  0  0  0  0  0  0  0  0
   -0.5924    2.3409    0.9491 H   0  0  0  0  0  0  0  0  0  0  0  0
   -4.1965    3.0717    2.0879 H   0  0  0  0  0  0  0  0  0  0  0  0
    0.8916   -0.2338   -1.2811 H   0  0  0  0  0  0  0  0  0  0  0  0
    3.0334    0.8908   -1.7633 H   0  0  0  0  0  0  0  0  0  0  0  0
    3.0488   -0.8911   -2.1500 H   0  0  0  0  0  0  0  0  0  0  0  0
    5.2980   -0.5090   -2.6801 H   0  0  0  0  0  0  0  0  0  0  0  0
    5.3387    1.0223   -1.7102 H   0  0  0  0  0  0  0  0  0  0  0  0
    5.8029   -1.8292   -0.8091 H   0  0  0  0  0  0  0  0  0  0  0  0
    6.5485   -0.2953   -0.1940 H   0  0  0  0  0  0  0  0  0  0  0  0
    4.4712   -1.7115    1.0742 H   0  0  0  0  0  0  0  0  0  0  0  0
    4.7806    0.0714    1.2983 H   0  0  0  0  0  0  0  0  0  0  0  0
    2.7960   -0.6116    2.5378 H   0  0  0  0  0  0  0  0  0  0  0  0
   -1.4731   -0.4631    2.3050 H   0  0  0  0  0  0  0  0  0  0  0  0
   -0.9356   -0.1693   -2.4448 H   0  0  0  0  0  0  0  0  0  0  0  0
   -0.0800    1.9754   -1.2982 H   0  0  0  0  0  0  0  0  0  0  0  0
   -1.7415    2.6512   -1.5282 H   0  0  0  0  0  0  0  0  0  0  0  0
   -0.7502    2.1689   -2.9380 H   0  0  0  0  0  0  0  0  0  0  0  0
   -3.3423   -0.5242   -2.7768 H   0  0  0  0  0  0  0  0  0  0  0  0
   -2.7631    0.9051   -3.6730 H   0  0  0  0  0  0  0  0  0  0  0  0
   -3.6984    1.1357   -2.1545 H   0  0  0  0  0  0  0  0  0  0  0  0
    0.2965   -3.1902   -1.5987 H   0  0  0  0  0  0  0  0  0  0  0  0
   -3.7036   -3.8256   -1.0719 H   0  0  0  0  0  0  0  0  0  0  0  0
  1  2  1  0
  2  3  1  0
  3  4  1  0
  4  5  2  0
  5  6  1  0
  6  7  1  0
  7  8  1  0
  8  9  2  0
  9 10  1  0
 10 11  1  0
 11 12  1  0
 12 13  1  0
 13 14  1  0
 14 15  1  0
 10 16  2  0
 16 17  1  0
 17 18  1  0
 18 19  1  0
 18 20  1  0
 18 21  1  0
 17 22  2  0
  7 23  1  6
 23 24  1  0
 23 25  1  0
  7 26  1  0
 26 27  2  0
 27 28  2  0
 26 29  1  0
 29 30  2  3
 29 31  1  0
  6  2  2  0
 22  8  1  0
 31  5  1  0
 15 11  1  0
  1 32  1  0
  1 33  1  0
  1 34  1  0
  3 35  1  0
  9 36  1  0
 12 37  1  0
 12 38  1  0
 13 39  1  0
 13 40  1  0
 14 41  1  0
 14 42  1  0
 15 43  1  0
 15 44  1  0
 16 45  1  0
 22 46  1  0
 23 47  1  0
 24 48  1  0
 24 49  1  0
 24 50  1  0
 25 51  1  0
 25 52  1  0
 25 53  1  0
 28 54  1  0
 30 55  1  0
M  END
>  <tautomer smiles>  (10) 
Cc1[nH]nc2c1[C@](c1cc(N3CCCC3)cc(C(F)(F)F)c1)(C(C)C)C(=C=N)C(=N)O2

>  <protonation smiles>  (10) 
Cc1[nH]nc2c1[C@](c1cc(N3CCCC3)cc(C(F)(F)F)c1)(C(C)C)C(=C=N)C(=N)O2

>  <Score>  (10) 
17.77

>  <Label>  (10) 
high_energy

$$$$

     RDKit          3D

 55 58  0  0  0  0  0  0  0  0999 V2000
   -3.5180    2.1704    0.9858 C   0  0  0  0  0  0  0  0  0  0  0  0
   -2.5914    1.0908    1.5483 C   0  0  0  0  0  0  0  0  0  0  0  0
   -3.2279    0.5105    2.7291 N   0  0  0  0  0  0  0  0  0  0  0  0
   -3.3824   -0.7412    2.6083 N   0  0  0  0  0  0  0  0  0  0  0  0
   -2.8541   -1.1422    1.3637 C   0  0  0  0  0  0  0  0  0  0  0  0
   -2.3992   -0.1264    0.6527 C   0  0  0  0  0  0  0  0  0  0  0  0
   -1.5579   -0.3384   -0.6280 C   0  0  2  0  0  0  0  0  0  0  0  0
   -0.1930    0.3917   -0.4085 C   0  0  0  0  0  0  0  0  0  0  0  0
    0.9645   -0.3180    0.0078 C   0  0  0  0  0  0  0  0  0  0  0  0
    2.1933    0.3244    0.2481 C   0  0  0  0  0  0  0  0  0  0  0  0
    3.3644   -0.4391    0.6281 N   0  0  0  0  0  0  0  0  0  0  0  0
    4.6119    0.1565    1.0860 C   0  0  0  0  0  0  0  0  0  0  0  0
    5.4980   -1.0056    1.5113 C   0  0  0  0  0  0  0  0  0  0  0  0
    4.8971   -2.2426    0.8559 C   0  0  0  0  0  0  0  0  0  0  0  0
    3.4434   -1.8924    0.5726 C   0  0  0  0  0  0  0  0  0  0  0  0
    2.2578    1.7202    0.1309 C   0  0  0  0  0  0  0  0  0  0  0  0
    1.1188    2.4640   -0.1944 C   0  0  0  0  0  0  0  0  0  0  0  0
    1.1670    3.9729   -0.1939 C   0  0  0  0  0  0  0  0  0  0  0  0
    0.8544    4.4373    1.0700 F   0  0  0  0  0  0  0  0  0  0  0  0
    0.2583    4.4894   -1.1017 F   0  0  0  0  0  0  0  0  0  0  0  0
    2.4278    4.4261   -0.5421 F   0  0  0  0  0  0  0  0  0  0  0  0
   -0.0977    1.7995   -0.4046 C   0  0  0  0  0  0  0  0  0  0  0  0
   -2.3672    0.0727   -1.9514 C   0  0  0  0  0  0  0  0  0  0  0  0
   -3.7966   -0.5139   -1.9646 C   0  0  0  0  0  0  0  0  0  0  0  0
   -2.4343    1.5443   -2.3862 C   0  0  0  0  0  0  0  0  0  0  0  0
   -1.2889   -1.8654   -0.8391 C   0  0  0  0  0  0  0  0  0  0  0  0
   -0.4225   -2.2716   -1.9348 C   0  0  0  0  0  0  0  0  0  0  0  0
    0.2684   -2.5916   -2.8063 N   0  0  0  0  0  0  0  0  0  0  0  0
   -1.8860   -2.8220   -0.0842 C   0  0  0  0  0  0  0  0  0  0  0  0
   -1.6975   -4.2202   -0.3410 N   0  0  0  0  0  0  0  0  0  0  0  0
   -2.7019   -2.4674    0.9896 O   0  0  0  0  0  0  0  0  0  0  0  0
   -3.9981    2.7270    1.8191 H   0  0  0  0  0  0  0  0  0  0  0  0
   -2.9462    2.9234    0.4136 H   0  0  0  0  0  0  0  0  0  0  0  0
   -4.3227    1.7298    0.3626 H   0  0  0  0  0  0  0  0  0  0  0  0
   -1.6152    1.5256    1.8496 H   0  0  0  0  0  0  0  0  0  0  0  0
    0.9148   -1.3795    0.1849 H   0  0  0  0  0  0  0  0  0  0  0  0
    4.4267    0.8358    1.9464 H   0  0  0  0  0  0  0  0  0  0  0  0
    5.0879    0.7157    0.2513 H   0  0  0  0  0  0  0  0  0  0  0  0
    6.5523   -0.8504    1.1946 H   0  0  0  0  0  0  0  0  0  0  0  0
    5.4608   -1.1180    2.6174 H   0  0  0  0  0  0  0  0  0  0  0  0
    5.4251   -2.4474   -0.1015 H   0  0  0  0  0  0  0  0  0  0  0  0
    4.9797   -3.1326    1.5170 H   0  0  0  0  0  0  0  0  0  0  0  0
    2.7847   -2.3328    1.3524 H   0  0  0  0  0  0  0  0  0  0  0  0
    3.1463   -2.2613   -0.4334 H   0  0  0  0  0  0  0  0  0  0  0  0
    3.1872    2.2381    0.3240 H   0  0  0  0  0  0  0  0  0  0  0  0
   -0.9747    2.4053   -0.5092 H   0  0  0  0  0  0  0  0  0  0  0  0
   -1.8560   -0.3940   -2.8213 H   0  0  0  0  0  0  0  0  0  0  0  0
   -4.4320   -0.0327   -1.1943 H   0  0  0  0  0  0  0  0  0  0  0  0
   -3.7849   -1.6078   -1.7834 H   0  0  0  0  0  0  0  0  0  0  0  0
   -4.2734   -0.3554   -2.9558 H   0  0  0  0  0  0  0  0  0  0  0  0
   -2.9429    2.1746   -1.6425 H   0  0  0  0  0  0  0  0  0  0  0  0
   -3.0218    1.6324   -3.3257 H   0  0  0  0  0  0  0  0  0  0  0  0
   -1.4281    1.9336   -2.6415 H   0  0  0  0  0  0  0  0  0  0  0  0
   -1.1068   -4.5820   -1.1216 H   0  0  0  0  0  0  0  0  0  0  0  0
   -2.1711   -4.9202    0.2716 H   0  0  0  0  0  0  0  0  0  0  0  0
  1  2  1  0
  2  3  1  0
  3  4  2  0
  4  5  1  0
  5  6  2  0
  6  7  1  0
  7  8  1  0
  8  9  2  0
  9 10  1  0
 10 11  1  0
 11 12  1  0
 12 13  1  0
 13 14  1  0
 14 15  1  0
 10 16  2  0
 16 17  1  0
 17 18  1  0
 18 19  1  0
 18 20  1  0
 18 21  1  0
 17 22  2  0
  7 23  1  6
 23 24  1  0
 23 25  1  0
  7 26  1  0
 26 27  1  0
 27 28  3  0
 26 29  2  0
 29 30  1  0
 29 31  1  0
  6  2  1  0
 22  8  1  0
 31  5  1  0
 15 11  1  0
  1 32  1  0
  1 33  1  0
  1 34  1  0
  2 35  1  0
  9 36  1  0
 12 37  1  0
 12 38  1  0
 13 39  1  0
 13 40  1  0
 14 41  1  0
 14 42  1  0
 15 43  1  0
 15 44  1  0
 16 45  1  0
 22 46  1  0
 23 47  1  0
 24 48  1  0
 24 49  1  0
 24 50  1  0
 25 51  1  0
 25 52  1  0
 25 53  1  0
 30 54  1  0
 30 55  1  0
M  END
>  <tautomer smiles>  (11) 
CC1N=NC2=C1[C@](c1cc(N3CCCC3)cc(C(F)(F)F)c1)(C(C)C)C(C#N)=C(N)O2

>  <protonation smiles>  (11) 
CC1N=NC2=C1[C@](c1cc(N3CCCC3)cc(C(F)(F)F)c1)(C(C)C)C(C#N)=C(N)O2

>  <Score>  (11) 
19.68

>  <Label>  (11) 
high_energy

$$$$

     RDKit          3D

 56 59  0  0  0  0  0  0  0  0999 V2000
   -2.0924   -2.1421   -1.7662 C   0  0  0  0  0  0  0  0  0  0  0  0
   -3.0561   -1.5148   -0.7609 C   0  0  0  0  0  0  0  0  0  0  0  0
   -4.3735   -1.3538   -1.3764 N   0  0  0  0  0  0  0  0  0  0  0  0
   -4.7424   -0.1385   -1.3756 N   0  0  0  0  0  0  0  0  0  0  0  0
   -3.7293    0.6386   -0.7719 C   0  0  0  0  0  0  0  0  0  0  0  0
   -2.7062   -0.0919   -0.3909 C   0  0  0  0  0  0  0  0  0  0  0  0
   -1.4909    0.5074    0.3340 C   0  0  2  0  0  0  0  0  0  0  0  0
   -0.2258    0.2731   -0.5215 C   0  0  0  0  0  0  0  0  0  0  0  0
    1.0274   -0.0448    0.0447 C   0  0  0  0  0  0  0  0  0  0  0  0
    2.1829   -0.1804   -0.7504 C   0  0  0  0  0  0  0  0  0  0  0  0
    3.4655   -0.5303   -0.1568 N   0  0  0  0  0  4  0  0  0  0  0  0
    3.4406   -1.8719    0.4616 C   0  0  0  0  0  0  0  0  0  0  0  0
    4.1095   -1.7610    1.8204 C   0  0  0  0  0  0  0  0  0  0  0  0
    3.9394   -0.3117    2.2080 C   0  0  0  0  0  0  0  0  0  0  0  0
    3.8843    0.4322    0.8843 C   0  0  0  0  0  0  0  0  0  0  0  0
    2.0830    0.0338   -2.1342 C   0  0  0  0  0  0  0  0  0  0  0  0
    0.8602    0.3869   -2.7207 C   0  0  0  0  0  0  0  0  0  0  0  0
    0.7801    0.6946   -4.1955 C   0  0  0  0  0  0  0  0  0  0  0  0
    1.7196   -0.0361   -4.9023 F   0  0  0  0  0  0  0  0  0  0  0  0
    1.0164    2.0422   -4.3925 F   0  0  0  0  0  0  0  0  0  0  0  0
   -0.4732    0.3789   -4.6916 F   0  0  0  0  0  0  0  0  0  0  0  0
   -0.2685    0.5502   -1.9046 C   0  0  0  0  0  0  0  0  0  0  0  0
   -1.4127   -0.0822    1.8036 C   0  0  0  0  0  0  0  0  0  0  0  0
   -2.6755    0.2244    2.6356 C   0  0  0  0  0  0  0  0  0  0  0  0
   -1.0998   -1.5950    1.8904 C   0  0  0  0  0  0  0  0  0  0  0  0
   -1.6296    2.0456    0.4464 C   0  0  0  0  0  0  0  0  0  0  0  0
   -0.5368    2.7861    1.0482 C   0  0  0  0  0  0  0  0  0  0  0  0
    0.3376    3.3728    1.5283 N   0  0  0  0  0  0  0  0  0  0  0  0
   -2.7313    2.7087    0.0055 C   0  0  0  0  0  0  0  0  0  0  0  0
   -2.8563    4.1314    0.1286 N   0  0  0  0  0  0  0  0  0  0  0  0
   -3.7893    2.0132   -0.5915 O   0  0  0  0  0  0  0  0  0  0  0  0
   -2.4566   -3.1527   -2.0470 H   0  0  0  0  0  0  0  0  0  0  0  0
   -1.0819   -2.2534   -1.3239 H   0  0  0  0  0  0  0  0  0  0  0  0
   -2.0285   -1.5246   -2.6872 H   0  0  0  0  0  0  0  0  0  0  0  0
   -3.1596   -2.1560    0.1336 H   0  0  0  0  0  0  0  0  0  0  0  0
    1.1331   -0.1850    1.1076 H   0  0  0  0  0  0  0  0  0  0  0  0
    4.2065   -0.5367   -0.8992 H   0  0  0  0  0  0  0  0  0  0  0  0
    3.9821   -2.6109   -0.1715 H   0  0  0  0  0  0  0  0  0  0  0  0
    2.4050   -2.2574    0.6048 H   0  0  0  0  0  0  0  0  0  0  0  0
    5.1924   -1.9979    1.7263 H   0  0  0  0  0  0  0  0  0  0  0  0
    3.6432   -2.4406    2.5666 H   0  0  0  0  0  0  0  0  0  0  0  0
    2.9806   -0.1797    2.7560 H   0  0  0  0  0  0  0  0  0  0  0  0
    4.7798    0.0416    2.8442 H   0  0  0  0  0  0  0  0  0  0  0  0
    4.9023    0.8220    0.6524 H   0  0  0  0  0  0  0  0  0  0  0  0
    3.2110    1.3165    0.9638 H   0  0  0  0  0  0  0  0  0  0  0  0
    2.9674   -0.0562   -2.7527 H   0  0  0  0  0  0  0  0  0  0  0  0
   -1.1925    0.8958   -2.3514 H   0  0  0  0  0  0  0  0  0  0  0  0
   -0.5876    0.4382    2.3372 H   0  0  0  0  0  0  0  0  0  0  0  0
   -3.5731   -0.2551    2.1912 H   0  0  0  0  0  0  0  0  0  0  0  0
   -2.5506   -0.1596    3.6709 H   0  0  0  0  0  0  0  0  0  0  0  0
   -2.8512    1.3178    2.7059 H   0  0  0  0  0  0  0  0  0  0  0  0
   -2.0183   -2.2016    2.0255 H   0  0  0  0  0  0  0  0  0  0  0  0
   -0.5652   -1.9721    0.9979 H   0  0  0  0  0  0  0  0  0  0  0  0
   -0.4570   -1.7902    2.7755 H   0  0  0  0  0  0  0  0  0  0  0  0
   -3.7184    4.6014   -0.2257 H   0  0  0  0  0  0  0  0  0  0  0  0
   -2.1204    4.7308    0.5628 H   0  0  0  0  0  0  0  0  0  0  0  0
  1  2  1  0
  2  3  1  0
  3  4  2  0
  4  5  1  0
  5  6  2  0
  6  7  1  0
  7  8  1  0
  8  9  2  0
  9 10  1  0
 10 11  1  0
 11 12  1  0
 12 13  1  0
 13 14  1  0
 14 15  1  0
 10 16  2  0
 16 17  1  0
 17 18  1  0
 18 19  1  0
 18 20  1  0
 18 21  1  0
 17 22  2  0
  7 23  1  1
 23 24  1  0
 23 25  1  0
  7 26  1  0
 26 27  1  0
 27 28  3  0
 26 29  2  0
 29 30  1  0
 29 31  1  0
  6  2  1  0
 22  8  1  0
 31  5  1  0
 15 11  1  0
  1 32  1  0
  1 33  1  0
  1 34  1  0
  2 35  1  0
  9 36  1  0
 11 37  1  0
 12 38  1  0
 12 39  1  0
 13 40  1  0
 13 41  1  0
 14 42  1  0
 14 43  1  0
 15 44  1  0
 15 45  1  0
 16 46  1  0
 22 47  1  0
 23 48  1  0
 24 49  1  0
 24 50  1  0
 24 51  1  0
 25 52  1  0
 25 53  1  0
 25 54  1  0
 30 55  1  0
 30 56  1  0
M  CHG  1  11   1
M  END
>  <tautomer smiles>  (12) 
CC1N=NC2=C1[C@](c1cc(N3CCCC3)cc(C(F)(F)F)c1)(C(C)C)C(C#N)=C(N)O2

>  <protonation smiles>  (12) 
CC1N=NC2=C1[C@](c1cc([NH+]3CCCC3)cc(C(F)(F)F)c1)(C(C)C)C(C#N)=C(N)O2

>  <Score>  (12) 
19.68

>  <Label>  (12) 
high_energy

$$$$

     RDKit          3D

 55 58  0  0  0  0  0  0  0  0999 V2000
   -2.1689    1.1509   -2.3402 C   0  0  0  0  0  0  0  0  0  0  0  0
   -2.5038    1.5137   -0.9290 C   0  0  0  0  0  0  0  0  0  0  0  0
   -3.0991    2.6811   -0.5940 N   0  0  0  0  0  0  0  0  0  0  0  0
   -3.2053    2.7229    0.7251 N   0  0  0  0  0  0  0  0  0  0  0  0
   -2.6722    1.6031    1.2324 C   0  0  0  0  0  0  0  0  0  0  0  0
   -2.2043    0.7955    0.2289 C   0  0  0  0  0  0  0  0  0  0  0  0
   -1.5926   -0.5853    0.4545 C   0  0  2  0  0  0  0  0  0  0  0  0
   -0.2646   -0.6021   -0.3408 C   0  0  0  0  0  0  0  0  0  0  0  0
    0.7987    0.2145    0.1008 C   0  0  0  0  0  0  0  0  0  0  0  0
    2.0111    0.2994   -0.6056 C   0  0  0  0  0  0  0  0  0  0  0  0
    3.0856    1.1444   -0.1279 N   0  0  0  0  0  0  0  0  0  0  0  0
    4.2918    1.4376   -0.8894 C   0  0  0  0  0  0  0  0  0  0  0  0
    5.0514    2.4813   -0.0833 C   0  0  0  0  0  0  0  0  0  0  0  0
    4.4722    2.4169    1.3246 C   0  0  0  0  0  0  0  0  0  0  0  0
    3.0911    1.7952    1.1745 C   0  0  0  0  0  0  0  0  0  0  0  0
    2.1539   -0.4425   -1.7898 C   0  0  0  0  0  0  0  0  0  0  0  0
    1.1152   -1.2587   -2.2594 C   0  0  0  0  0  0  0  0  0  0  0  0
    1.2539   -1.9921   -3.5716 C   0  0  0  0  0  0  0  0  0  0  0  0
    0.7675   -1.1947   -4.5911 F   0  0  0  0  0  0  0  0  0  0  0  0
    0.5381   -3.1772   -3.5450 F   0  0  0  0  0  0  0  0  0  0  0  0
    2.5796   -2.2962   -3.8302 F   0  0  0  0  0  0  0  0  0  0  0  0
   -0.0963   -1.3054   -1.5533 C   0  0  0  0  0  0  0  0  0  0  0  0
   -2.6485   -1.6820    0.0136 C   0  0  0  0  0  0  0  0  0  0  0  0
   -2.1698   -3.1362    0.2208 C   0  0  0  0  0  0  0  0  0  0  0  0
   -4.0176   -1.5173    0.7078 C   0  0  0  0  0  0  0  0  0  0  0  0
   -1.2888   -0.7611    1.9644 C   0  0  0  0  0  0  0  0  0  0  0  0
   -0.4755   -1.7107    2.3699 C   0  0  0  0  0  0  0  0  0  0  0  0
    0.3112   -2.6278    2.7596 N   0  0  0  0  0  0  0  0  0  0  0  0
   -1.9078    0.1374    2.9847 C   0  0  0  0  0  0  0  0  0  0  0  0
   -1.8159   -0.1353    4.2477 N   0  0  0  0  0  0  0  0  0  0  0  0
   -2.5843    1.2931    2.5826 O   0  0  0  0  0  0  0  0  0  0  0  0
   -1.0733    1.2309   -2.4966 H   0  0  0  0  0  0  0  0  0  0  0  0
   -2.5077    0.1226   -2.5714 H   0  0  0  0  0  0  0  0  0  0  0  0
   -2.6760    1.8476   -3.0402 H   0  0  0  0  0  0  0  0  0  0  0  0
   -3.6273    3.5120    1.2623 H   0  0  0  0  0  0  0  0  0  0  0  0
    0.6624    0.8058    0.9960 H   0  0  0  0  0  0  0  0  0  0  0  0
    4.0311    1.8403   -1.8923 H   0  0  0  0  0  0  0  0  0  0  0  0
    4.9019    0.5141   -0.9939 H   0  0  0  0  0  0  0  0  0  0  0  0
    6.1444    2.2774   -0.0818 H   0  0  0  0  0  0  0  0  0  0  0  0
    4.8681    3.4909   -0.5128 H   0  0  0  0  0  0  0  0  0  0  0  0
    4.4152    3.4265    1.7857 H   0  0  0  0  0  0  0  0  0  0  0  0
    5.1100    1.7612    1.9573 H   0  0  0  0  0  0  0  0  0  0  0  0
    2.9126    1.0524    1.9823 H   0  0  0  0  0  0  0  0  0  0  0  0
    2.3093    2.5851    1.2010 H   0  0  0  0  0  0  0  0  0  0  0  0
    3.0723   -0.3822   -2.3574 H   0  0  0  0  0  0  0  0  0  0  0  0
   -0.9016   -1.8840   -1.9765 H   0  0  0  0  0  0  0  0  0  0  0  0
   -2.8601   -1.5581   -1.0673 H   0  0  0  0  0  0  0  0  0  0  0  0
   -1.1147   -3.2796   -0.0834 H   0  0  0  0  0  0  0  0  0  0  0  0
   -2.7956   -3.8257   -0.3853 H   0  0  0  0  0  0  0  0  0  0  0  0
   -2.2657   -3.4408    1.2846 H   0  0  0  0  0  0  0  0  0  0  0  0
   -3.9196   -1.5950    1.8108 H   0  0  0  0  0  0  0  0  0  0  0  0
   -4.4808   -0.5417    0.4528 H   0  0  0  0  0  0  0  0  0  0  0  0
   -4.7178   -2.3091    0.3644 H   0  0  0  0  0  0  0  0  0  0  0  0
   -0.0506   -3.4037    3.3545 H   0  0  0  0  0  0  0  0  0  0  0  0
   -2.2425    0.4910    4.9661 H   0  0  0  0  0  0  0  0  0  0  0  0
  1  2  1  0
  2  3  2  0
  3  4  1  0
  4  5  1  0
  5  6  2  0
  6  7  1  0
  7  8  1  0
  8  9  2  0
  9 10  1  0
 10 11  1  0
 11 12  1  0
 12 13  1  0
 13 14  1  0
 14 15  1  0
 10 16  2  0
 16 17  1  0
 17 18  1  0
 18 19  1  0
 18 20  1  0
 18 21  1  0
 17 22  2  0
  7 23  1  6
 23 24  1  0
 23 25  1  0
  7 26  1  0
 26 27  2  0
 27 28  2  0
 26 29  1  0
 29 30  2  3
 29 31  1  0
  6  2  1  0
 22  8  1  0
 31  5  1  0
 15 11  1  0
  1 32  1  0
  1 33  1  0
  1 34  1  0
  4 35  1  0
  9 36  1  0
 12 37  1  0
 12 38  1  0
 13 39  1  0
 13 40  1  0
 14 41  1  0
 14 42  1  0
 15 43  1  0
 15 44  1  0
 16 45  1  0
 22 46  1  0
 23 47  1  0
 24 48  1  0
 24 49  1  0
 24 50  1  0
 25 51  1  0
 25 52  1  0
 25 53  1  0
 28 54  1  0
 30 55  1  0
M  END
>  <tautomer smiles>  (13) 
Cc1n[nH]c2c1[C@](c1cc(N3CCCC3)cc(C(F)(F)F)c1)(C(C)C)C(=C=N)C(=N)O2

>  <protonation smiles>  (13) 
Cc1n[nH]c2c1[C@](c1cc(N3CCCC3)cc(C(F)(F)F)c1)(C(C)C)C(=C=N)C(=N)O2

>  <Score>  (13) 
21.49

>  <Label>  (13) 
high_energy

$$$$

     RDKit          3D

 55 58  0  0  0  0  0  0  0  0999 V2000
   -2.1269   -0.4628   -2.8562 C   0  0  0  0  0  0  0  0  0  0  0  0
   -2.9496   -0.9774   -1.6790 C   0  0  0  0  0  0  0  0  0  0  0  0
   -4.3723   -0.8804   -1.9970 N   0  0  0  0  0  0  0  0  0  0  0  0
   -5.0005   -0.2149   -1.1184 N   0  0  0  0  0  0  0  0  0  0  0  0
   -4.0859    0.2172   -0.1327 C   0  0  0  0  0  0  0  0  0  0  0  0
   -2.8441   -0.1435   -0.4131 C   0  0  0  0  0  0  0  0  0  0  0  0
   -1.6875    0.0267    0.5945 C   0  0  2  0  0  0  0  0  0  0  0  0
   -0.4010    0.4640   -0.1597 C   0  0  0  0  0  0  0  0  0  0  0  0
    0.8866   -0.0238    0.1648 C   0  0  0  0  0  0  0  0  0  0  0  0
    2.0430    0.4495   -0.4844 C   0  0  0  0  0  0  0  0  0  0  0  0
    3.3488   -0.0808   -0.1489 N   0  0  0  0  0  0  0  0  0  0  0  0
    3.6039   -0.9743    0.9726 C   0  0  0  0  0  0  0  0  0  0  0  0
    5.1154   -1.1382    1.0413 C   0  0  0  0  0  0  0  0  0  0  0  0
    5.6405   -0.6929   -0.3176 C   0  0  0  0  0  0  0  0  0  0  0  0
    4.5620    0.2091   -0.9005 C   0  0  0  0  0  0  0  0  0  0  0  0
    1.9095    1.4550   -1.4561 C   0  0  0  0  0  0  0  0  0  0  0  0
    0.6535    1.9851   -1.7759 C   0  0  0  0  0  0  0  0  0  0  0  0
    0.5325    3.1206   -2.7626 C   0  0  0  0  0  0  0  0  0  0  0  0
    1.5253    3.0438   -3.7241 F   0  0  0  0  0  0  0  0  0  0  0  0
    0.6493    4.3223   -2.0895 F   0  0  0  0  0  0  0  0  0  0  0  0
   -0.6929    3.0809   -3.4054 F   0  0  0  0  0  0  0  0  0  0  0  0
   -0.4784    1.5204   -1.0936 C   0  0  0  0  0  0  0  0  0  0  0  0
   -1.5090   -1.3388    1.4048 C   0  0  0  0  0  0  0  0  0  0  0  0
   -2.7391   -1.7483    2.2402 C   0  0  0  0  0  0  0  0  0  0  0  0
   -1.0698   -2.5466    0.5433 C   0  0  0  0  0  0  0  0  0  0  0  0
   -2.0284    1.2356    1.5737 C   0  0  0  0  0  0  0  0  0  0  0  0
   -1.1437    1.2597    2.7585 C   0  0  0  0  0  0  0  0  0  0  0  0
   -0.4493    1.2794    3.6841 N   0  0  0  0  0  0  0  0  0  0  0  0
   -3.5047    1.3285    1.9407 C   0  0  0  0  0  0  0  0  0  0  0  0
   -3.9124    1.9008    3.0314 N   0  0  0  0  0  0  0  0  0  0  0  0
   -4.4615    0.8784    1.0318 O   0  0  0  0  0  0  0  0  0  0  0  0
   -2.3886   -1.0378   -3.7696 H   0  0  0  0  0  0  0  0  0  0  0  0
   -2.3399    0.6097   -3.0489 H   0  0  0  0  0  0  0  0  0  0  0  0
   -1.0448   -0.6148   -2.6663 H   0  0  0  0  0  0  0  0  0  0  0  0
   -2.7096   -2.0391   -1.4958 H   0  0  0  0  0  0  0  0  0  0  0  0
    1.0082   -0.7751    0.9233 H   0  0  0  0  0  0  0  0  0  0  0  0
    3.2214   -0.5319    1.9183 H   0  0  0  0  0  0  0  0  0  0  0  0
    3.1194   -1.9573    0.7853 H   0  0  0  0  0  0  0  0  0  0  0  0
    5.4007   -2.1899    1.2615 H   0  0  0  0  0  0  0  0  0  0  0  0
    5.5274   -0.4740    1.8329 H   0  0  0  0  0  0  0  0  0  0  0  0
    6.6102   -0.1578   -0.2221 H   0  0  0  0  0  0  0  0  0  0  0  0
    5.7765   -1.5827   -0.9713 H   0  0  0  0  0  0  0  0  0  0  0  0
    4.8398    1.2769   -0.7644 H   0  0  0  0  0  0  0  0  0  0  0  0
    4.4149   -0.0143   -1.9797 H   0  0  0  0  0  0  0  0  0  0  0  0
    2.7864    1.8493   -1.9511 H   0  0  0  0  0  0  0  0  0  0  0  0
   -1.4356    1.9861   -1.2925 H   0  0  0  0  0  0  0  0  0  0  0  0
   -0.7068   -1.1955    2.1579 H   0  0  0  0  0  0  0  0  0  0  0  0
   -2.5424   -2.7130    2.7559 H   0  0  0  0  0  0  0  0  0  0  0  0
   -2.9508   -1.0055    3.0342 H   0  0  0  0  0  0  0  0  0  0  0  0
   -3.6366   -1.8804    1.6018 H   0  0  0  0  0  0  0  0  0  0  0  0
   -0.5256   -2.2417   -0.3726 H   0  0  0  0  0  0  0  0  0  0  0  0
   -1.9372   -3.1703    0.2418 H   0  0  0  0  0  0  0  0  0  0  0  0
   -0.3956   -3.2019    1.1356 H   0  0  0  0  0  0  0  0  0  0  0  0
   -1.8362    2.1957    1.0500 H   0  0  0  0  0  0  0  0  0  0  0  0
   -3.2679    2.3112    3.7424 H   0  0  0  0  0  0  0  0  0  0  0  0
  1  2  1  0
  2  3  1  0
  3  4  2  0
  4  5  1  0
  5  6  2  0
  6  7  1  0
  7  8  1  0
  8  9  2  0
  9 10  1  0
 10 11  1  0
 11 12  1  0
 12 13  1  0
 13 14  1  0
 14 15  1  0
 10 16  2  0
 16 17  1  0
 17 18  1  0
 18 19  1  0
 18 20  1  0
 18 21  1  0
 17 22  2  0
  7 23  1  1
 23 24  1  0
 23 25  1  0
  7 26  1  0
 26 27  1  0
 27 28  3  0
 26 29  1  0
 29 30  2  3
 29 31  1  0
  6  2  1  0
 22  8  1  0
 31  5  1  0
 15 11  1  0
  1 32  1  0
  1 33  1  0
  1 34  1  0
  2 35  1  0
  9 36  1  0
 12 37  1  0
 12 38  1  0
 13 39  1  0
 13 40  1  0
 14 41  1  0
 14 42  1  0
 15 43  1  0
 15 44  1  0
 16 45  1  0
 22 46  1  0
 23 47  1  0
 24 48  1  0
 24 49  1  0
 24 50  1  0
 25 51  1  0
 25 52  1  0
 25 53  1  0
 26 54  1  0
 30 55  1  0
M  END
>  <tautomer smiles>  (14) 
CC1N=NC2=C1[C@](c1cc(N3CCCC3)cc(C(F)(F)F)c1)(C(C)C)C(C#N)C(=N)O2

>  <protonation smiles>  (14) 
CC1N=NC2=C1[C@](c1cc(N3CCCC3)cc(C(F)(F)F)c1)(C(C)C)C(C#N)C(=N)O2

>  <Score>  (14) 
21.74

>  <Label>  (14) 
high_energy

$$$$

     RDKit          3D

 54 57  0  0  0  0  0  0  0  0999 V2000
   -1.2959   -2.4895    0.1401 C   0  0  0  0  0  0  0  0  0  0  0  0
   -2.4823   -1.6549   -0.3364 C   0  0  0  0  0  0  0  0  0  0  0  0
   -3.1820   -2.3684   -1.4030 N   0  0  0  0  0  0  0  0  0  0  0  0
   -3.2704   -1.6628   -2.4543 N   0  0  0  0  0  0  0  0  0  0  0  0
   -2.6509   -0.4151   -2.2194 C   0  0  0  0  0  0  0  0  0  0  0  0
   -2.1035   -0.3552   -1.0170 C   0  0  0  0  0  0  0  0  0  0  0  0
   -1.6201    0.9599   -0.3827 C   0  0  2  0  0  0  0  0  0  0  0  0
   -0.3340    0.6039    0.4351 C   0  0  0  0  0  0  0  0  0  0  0  0
    0.7198   -0.0929   -0.2045 C   0  0  0  0  0  0  0  0  0  0  0  0
    1.9067   -0.4397    0.4631 C   0  0  0  0  0  0  0  0  0  0  0  0
    2.9741   -1.1248   -0.2360 N   0  0  0  0  0  0  0  0  0  0  0  0
    4.3009   -1.3471    0.3211 C   0  0  0  0  0  0  0  0  0  0  0  0
    5.1362   -1.9310   -0.8093 C   0  0  0  0  0  0  0  0  0  0  0  0
    4.1370   -2.4374   -1.8420 C   0  0  0  0  0  0  0  0  0  0  0  0
    2.8491   -1.6698   -1.5806 C   0  0  0  0  0  0  0  0  0  0  0  0
    2.0328   -0.1158    1.8216 C   0  0  0  0  0  0  0  0  0  0  0  0
    0.9816    0.4981    2.5139 C   0  0  0  0  0  0  0  0  0  0  0  0
    1.1266    0.8454    3.9770 C   0  0  0  0  0  0  0  0  0  0  0  0
    2.0518    0.0226    4.5963 F   0  0  0  0  0  0  0  0  0  0  0  0
   -0.0840    0.6984    4.6319 F   0  0  0  0  0  0  0  0  0  0  0  0
    1.5448    2.1578    4.0928 F   0  0  0  0  0  0  0  0  0  0  0  0
   -0.1831    0.8617    1.8195 C   0  0  0  0  0  0  0  0  0  0  0  0
   -2.7990    1.5058    0.5472 C   0  0  0  0  0  0  0  0  0  0  0  0
   -4.2025    1.4913   -0.1010 C   0  0  0  0  0  0  0  0  0  0  0  0
   -2.5603    2.9285    1.1177 C   0  0  0  0  0  0  0  0  0  0  0  0
   -1.3056    2.0382   -1.5315 C   0  0  0  0  0  0  0  0  0  0  0  0
    0.0704    2.0333   -2.0598 C   0  0  0  0  0  0  0  0  0  0  0  0
    1.1483    2.0423   -2.4823 N   0  0  0  0  0  0  0  0  0  0  0  0
   -2.2200    1.9086   -2.7272 C   0  0  0  0  0  0  0  0  0  0  0  0
   -2.4775    2.9399   -3.4630 N   0  0  0  0  0  2  0  0  0  0  0  0
   -2.7399    0.6666   -3.0878 O   0  0  0  0  0  0  0  0  0  0  0  0
   -0.5436   -2.6041   -0.6689 H   0  0  0  0  0  0  0  0  0  0  0  0
   -1.6484   -3.5001    0.4364 H   0  0  0  0  0  0  0  0  0  0  0  0
   -0.8292   -2.0265    1.0330 H   0  0  0  0  0  0  0  0  0  0  0  0
   -3.1839   -1.4690    0.5042 H   0  0  0  0  0  0  0  0  0  0  0  0
    0.5997   -0.3810   -1.2388 H   0  0  0  0  0  0  0  0  0  0  0  0
    4.7425   -0.3884    0.6705 H   0  0  0  0  0  0  0  0  0  0  0  0
    4.2361   -2.0691    1.1639 H   0  0  0  0  0  0  0  0  0  0  0  0
    5.7947   -2.7500   -0.4468 H   0  0  0  0  0  0  0  0  0  0  0  0
    5.7627   -1.1312   -1.2622 H   0  0  0  0  0  0  0  0  0  0  0  0
    4.5055   -2.2722   -2.8777 H   0  0  0  0  0  0  0  0  0  0  0  0
    3.9619   -3.5247   -1.6851 H   0  0  0  0  0  0  0  0  0  0  0  0
    1.9745   -2.3533   -1.6446 H   0  0  0  0  0  0  0  0  0  0  0  0
    2.7411   -0.8395   -2.3120 H   0  0  0  0  0  0  0  0  0  0  0  0
    2.9416   -0.3620    2.3530 H   0  0  0  0  0  0  0  0  0  0  0  0
   -0.9633    1.3242    2.3972 H   0  0  0  0  0  0  0  0  0  0  0  0
   -2.8868    0.8121    1.4121 H   0  0  0  0  0  0  0  0  0  0  0  0
   -4.2384    2.1349   -1.0025 H   0  0  0  0  0  0  0  0  0  0  0  0
   -4.9549    1.8764    0.6208 H   0  0  0  0  0  0  0  0  0  0  0  0
   -4.5230    0.4646   -0.3682 H   0  0  0  0  0  0  0  0  0  0  0  0
   -2.9755    3.7098    0.4447 H   0  0  0  0  0  0  0  0  0  0  0  0
   -3.0685    3.0293    2.1005 H   0  0  0  0  0  0  0  0  0  0  0  0
   -1.4850    3.1598    1.2545 H   0  0  0  0  0  0  0  0  0  0  0  0
   -1.4287    3.0623   -1.1336 H   0  0  0  0  0  0  0  0  0  0  0  0
  1  2  1  0
  2  3  1  0
  3  4  2  0
  4  5  1  0
  5  6  2  0
  6  7  1  0
  7  8  1  0
  8  9  2  0
  9 10  1  0
 10 11  1  0
 11 12  1  0
 12 13  1  0
 13 14  1  0
 14 15  1  0
 10 16  2  0
 16 17  1  0
 17 18  1  0
 18 19  1  0
 18 20  1  0
 18 21  1  0
 17 22  2  0
  7 23  1  1
 23 24  1  0
 23 25  1  0
  7 26  1  0
 26 27  1  0
 27 28  3  0
 26 29  1  0
 29 30  2  0
 29 31  1  0
  6  2  1  0
 22  8  1  0
 31  5  1  0
 15 11  1  0
  1 32  1  0
  1 33  1  0
  1 34  1  0
  2 35  1  0
  9 36  1  0
 12 37  1  0
 12 38  1  0
 13 39  1  0
 13 40  1  0
 14 41  1  0
 14 42  1  0
 15 43  1  0
 15 44  1  0
 16 45  1  0
 22 46  1  0
 23 47  1  0
 24 48  1  0
 24 49  1  0
 24 50  1  0
 25 51  1  0
 25 52  1  0
 25 53  1  0
 26 54  1  0
M  CHG  1  30  -1
M  END
>  <tautomer smiles>  (15) 
CC1N=NC2=C1[C@](c1cc(N3CCCC3)cc(C(F)(F)F)c1)(C(C)C)C(C#N)C(=N)O2

>  <protonation smiles>  (15) 
CC1N=NC2=C1[C@](c1cc(N3CCCC3)cc(C(F)(F)F)c1)(C(C)C)C(C#N)C(=[N-])O2

>  <Score>  (15) 
21.74

>  <Label>  (15) 
high_energy

$$$$

     RDKit          3D

 55 58  0  0  0  0  0  0  0  0999 V2000
   -4.4756   -0.3673    1.3697 C   0  0  0  0  0  0  0  0  0  0  0  0
   -3.6537   -1.2656    0.4947 C   0  0  0  0  0  0  0  0  0  0  0  0
   -2.5061   -1.0224   -0.1589 C   0  0  0  0  0  0  0  0  0  0  0  0
   -1.9897   -2.3658   -0.5747 C   0  0  0  0  0  0  0  0  0  0  0  0
   -3.1276   -3.2379   -0.3526 N   0  0  0  0  0  0  0  0  0  0  0  0
   -4.0310   -2.6222    0.2923 N   0  0  0  0  0  0  0  0  0  0  0  0
   -1.5527   -2.3696   -1.9277 O   0  0  0  0  0  0  0  0  0  0  0  0
   -0.9293   -1.2405   -2.4737 C   0  0  0  0  0  0  0  0  0  0  0  0
   -0.0477   -1.3789   -3.4105 N   0  0  0  0  0  0  0  0  0  0  0  0
   -1.3746    0.1406   -2.0429 C   0  0  0  0  0  0  0  0  0  0  0  0
   -2.5549    0.4220   -2.8774 C   0  0  0  0  0  0  0  0  0  0  0  0
   -3.4745    0.6324   -3.5488 N   0  0  0  0  0  0  0  0  0  0  0  0
   -1.6480    0.2179   -0.4728 C   0  0  2  0  0  0  0  0  0  0  0  0
   -0.3481    0.0240    0.3615 C   0  0  0  0  0  0  0  0  0  0  0  0
    0.9524    0.0768   -0.1936 C   0  0  0  0  0  0  0  0  0  0  0  0
    2.1018   -0.1054    0.5991 C   0  0  0  0  0  0  0  0  0  0  0  0
    3.4223   -0.0775    0.0033 N   0  0  0  0  0  0  0  0  0  0  0  0
    4.6413   -0.4480    0.7087 C   0  0  0  0  0  0  0  0  0  0  0  0
    5.7480   -0.4408   -0.3362 C   0  0  0  0  0  0  0  0  0  0  0  0
    5.2046    0.3686   -1.5069 C   0  0  0  0  0  0  0  0  0  0  0  0
    3.6894    0.3224   -1.3715 C   0  0  0  0  0  0  0  0  0  0  0  0
    1.9456   -0.3192    1.9787 C   0  0  0  0  0  0  0  0  0  0  0  0
    0.6749   -0.3289    2.5672 C   0  0  0  0  0  0  0  0  0  0  0  0
    0.5188   -0.5996    4.0439 C   0  0  0  0  0  0  0  0  0  0  0  0
    0.3959   -1.9615    4.2456 F   0  0  0  0  0  0  0  0  0  0  0  0
   -0.6077    0.0332    4.5408 F   0  0  0  0  0  0  0  0  0  0  0  0
    1.6175   -0.1370    4.7477 F   0  0  0  0  0  0  0  0  0  0  0  0
   -0.4567   -0.1790    1.7547 C   0  0  0  0  0  0  0  0  0  0  0  0
   -2.2592    1.6230   -0.0459 C   0  0  0  0  0  0  0  0  0  0  0  0
   -1.2794    2.7948   -0.2737 C   0  0  0  0  0  0  0  0  0  0  0  0
   -3.6216    1.9988   -0.6680 C   0  0  0  0  0  0  0  0  0  0  0  0
   -3.8459    0.2978    1.9865 H   0  0  0  0  0  0  0  0  0  0  0  0
   -5.2179    0.2033    0.7805 H   0  0  0  0  0  0  0  0  0  0  0  0
   -5.0506   -0.9957    2.0815 H   0  0  0  0  0  0  0  0  0  0  0  0
   -1.1521   -2.6718    0.0890 H   0  0  0  0  0  0  0  0  0  0  0  0
    0.2395   -2.3265   -3.7418 H   0  0  0  0  0  0  0  0  0  0  0  0
   -0.6195    0.8939   -2.3438 H   0  0  0  0  0  0  0  0  0  0  0  0
    1.0921    0.2429   -1.2450 H   0  0  0  0  0  0  0  0  0  0  0  0
    4.5406   -1.4611    1.1554 H   0  0  0  0  0  0  0  0  0  0  0  0
    4.8567    0.3010    1.5015 H   0  0  0  0  0  0  0  0  0  0  0  0
    6.6836    0.0054    0.0656 H   0  0  0  0  0  0  0  0  0  0  0  0
    5.9531   -1.4819   -0.6700 H   0  0  0  0  0  0  0  0  0  0  0  0
    5.5550    1.4211   -1.4232 H   0  0  0  0  0  0  0  0  0  0  0  0
    5.5388   -0.0517   -2.4803 H   0  0  0  0  0  0  0  0  0  0  0  0
    3.2540    1.3245   -1.5778 H   0  0  0  0  0  0  0  0  0  0  0  0
    3.2646   -0.4316   -2.0695 H   0  0  0  0  0  0  0  0  0  0  0  0
    2.8141   -0.4724    2.6044 H   0  0  0  0  0  0  0  0  0  0  0  0
   -1.4358   -0.2292    2.2120 H   0  0  0  0  0  0  0  0  0  0  0  0
   -2.4123    1.6048    1.0500 H   0  0  0  0  0  0  0  0  0  0  0  0
   -1.7270    3.7406    0.1013 H   0  0  0  0  0  0  0  0  0  0  0  0
   -0.3299    2.6450    0.2798 H   0  0  0  0  0  0  0  0  0  0  0  0
   -1.0529    2.9269   -1.3516 H   0  0  0  0  0  0  0  0  0  0  0  0
   -3.4950    2.6103   -1.5870 H   0  0  0  0  0  0  0  0  0  0  0  0
   -4.2175    1.1101   -0.9415 H   0  0  0  0  0  0  0  0  0  0  0  0
   -4.2103    2.6069    0.0519 H   0  0  0  0  0  0  0  0  0  0  0  0
  1  2  1  0
  2  3  2  0
  3  4  1  0
  4  5  1  0
  5  6  2  0
  4  7  1  0
  7  8  1  0
  8  9  2  3
  8 10  1  0
 10 11  1  0
 11 12  3  0
 10 13  1  0
 13 14  1  0
 14 15  2  0
 15 16  1  0
 16 17  1  0
 17 18  1  0
 18 19  1  0
 19 20  1  0
 20 21  1  0
 16 22  2  0
 22 23  1  0
 23 24  1  0
 24 25  1  0
 24 26  1  0
 24 27  1  0
 23 28  2  0
 13 29  1  6
 29 30  1  0
 29 31  1  0
  6  2  1  0
 28 14  1  0
 13  3  1  0
 21 17  1  0
  1 32  1  0
  1 33  1  0
  1 34  1  0
  4 35  1  0
  9 36  1  0
 10 37  1  0
 15 38  1  0
 18 39  1  0
 18 40  1  0
 19 41  1  0
 19 42  1  0
 20 43  1  0
 20 44  1  0
 21 45  1  0
 21 46  1  0
 22 47  1  0
 28 48  1  0
 29 49  1  0
 30 50  1  0
 30 51  1  0
 30 52  1  0
 31 53  1  0
 31 54  1  0
 31 55  1  0
M  END
>  <tautomer smiles>  (16) 
CC1=C2C(N=N1)OC(=N)C(C#N)[C@@]2(c1cc(N2CCCC2)cc(C(F)(F)F)c1)C(C)C

>  <protonation smiles>  (16) 
CC1=C2C(N=N1)OC(=N)C(C#N)[C@@]2(c1cc(N2CCCC2)cc(C(F)(F)F)c1)C(C)C

>  <Score>  (16) 
26.74

>  <Label>  (16) 
high_energy

$$$$

     RDKit          3D

 55 58  0  0  0  0  0  0  0  0999 V2000
   -0.5920    2.9901    0.3679 C   0  0  0  0  0  0  0  0  0  0  0  0
   -1.9396    2.6408   -0.1820 C   0  0  0  0  0  0  0  0  0  0  0  0
   -2.3409    1.4855   -0.7229 C   0  0  0  0  0  0  0  0  0  0  0  0
   -3.7479    1.6739   -1.1411 C   0  0  0  0  0  0  0  0  0  0  0  0
   -4.0756    2.9814   -0.5927 N   0  0  0  0  0  0  0  0  0  0  0  0
   -3.0462    3.5250   -0.0854 N   0  0  0  0  0  0  0  0  0  0  0  0
   -4.5355    0.6448   -0.5694 O   0  0  0  0  0  0  0  0  0  0  0  0
   -4.0717   -0.6782   -0.4957 C   0  0  0  0  0  0  0  0  0  0  0  0
   -5.0383   -1.6964   -0.2122 N   0  0  0  0  0  0  0  0  0  0  0  0
   -2.7476   -0.9713   -0.6569 C   0  0  0  0  0  0  0  0  0  0  0  0
   -2.3091   -2.3471   -0.5090 C   0  0  0  0  0  0  0  0  0  0  0  0
   -1.9569   -3.4436   -0.3882 N   0  0  0  0  0  0  0  0  0  0  0  0
   -1.6640    0.1231   -0.8830 C   0  0  2  0  0  0  0  0  0  0  0  0
   -0.6019   -0.0605    0.2328 C   0  0  0  0  0  0  0  0  0  0  0  0
    0.7776   -0.2431   -0.0039 C   0  0  0  0  0  0  0  0  0  0  0  0
    1.6921   -0.4180    1.0522 C   0  0  0  0  0  0  0  0  0  0  0  0
    3.1022   -0.6165    0.7833 N   0  0  0  0  0  0  0  0  0  0  0  0
    4.1336   -0.6142    1.8103 C   0  0  0  0  0  0  0  0  0  0  0  0
    5.4638   -0.6722    1.0727 C   0  0  0  0  0  0  0  0  0  0  0  0
    5.1373   -1.1057   -0.3516 C   0  0  0  0  0  0  0  0  0  0  0  0
    3.6564   -0.8167   -0.5487 C   0  0  0  0  0  0  0  0  0  0  0  0
    1.2127   -0.3973    2.3721 C   0  0  0  0  0  0  0  0  0  0  0  0
   -0.1452   -0.1868    2.6423 C   0  0  0  0  0  0  0  0  0  0  0  0
   -0.6507   -0.1963    4.0647 C   0  0  0  0  0  0  0  0  0  0  0  0
   -0.9708   -1.4917    4.4257 F   0  0  0  0  0  0  0  0  0  0  0  0
   -1.7774    0.5981    4.1904 F   0  0  0  0  0  0  0  0  0  0  0  0
    0.3150    0.2878    4.9304 F   0  0  0  0  0  0  0  0  0  0  0  0
   -1.0415   -0.0517    1.5745 C   0  0  0  0  0  0  0  0  0  0  0  0
   -1.1739    0.0282   -2.3899 C   0  0  0  0  0  0  0  0  0  0  0  0
   -0.5708   -1.3338   -2.8124 C   0  0  0  0  0  0  0  0  0  0  0  0
   -0.3041    1.2142   -2.8727 C   0  0  0  0  0  0  0  0  0  0  0  0
    0.2153    2.5593   -0.2550 H   0  0  0  0  0  0  0  0  0  0  0  0
   -0.5012    2.6323    1.4119 H   0  0  0  0  0  0  0  0  0  0  0  0
   -0.4701    4.0921    0.3690 H   0  0  0  0  0  0  0  0  0  0  0  0
   -3.8424    1.6782   -2.2483 H   0  0  0  0  0  0  0  0  0  0  0  0
   -6.0368   -1.4264   -0.0731 H   0  0  0  0  0  0  0  0  0  0  0  0
   -4.7968   -2.7098   -0.1482 H   0  0  0  0  0  0  0  0  0  0  0  0
    1.1613   -0.2584   -1.0029 H   0  0  0  0  0  0  0  0  0  0  0  0
    4.0718    0.3133    2.4216 H   0  0  0  0  0  0  0  0  0  0  0  0
    4.0158   -1.5071    2.4623 H   0  0  0  0  0  0  0  0  0  0  0  0
    6.1644   -1.3852    1.5585 H   0  0  0  0  0  0  0  0  0  0  0  0
    5.9272    0.3382    1.0571 H   0  0  0  0  0  0  0  0  0  0  0  0
    5.7588   -0.5557   -1.0921 H   0  0  0  0  0  0  0  0  0  0  0  0
    5.3232   -2.1969   -0.4625 H   0  0  0  0  0  0  0  0  0  0  0  0
    3.1593   -1.6753   -1.0502 H   0  0  0  0  0  0  0  0  0  0  0  0
    3.5242    0.1075   -1.1533 H   0  0  0  0  0  0  0  0  0  0  0  0
    1.8932   -0.5517    3.1986 H   0  0  0  0  0  0  0  0  0  0  0  0
   -2.0959    0.0793    1.7862 H   0  0  0  0  0  0  0  0  0  0  0  0
   -2.0936    0.1164   -3.0135 H   0  0  0  0  0  0  0  0  0  0  0  0
    0.0248   -1.8168   -2.0172 H   0  0  0  0  0  0  0  0  0  0  0  0
    0.0697   -1.2334   -3.7132 H   0  0  0  0  0  0  0  0  0  0  0  0
   -1.3864   -2.0372   -3.0809 H   0  0  0  0  0  0  0  0  0  0  0  0
   -0.8690    2.1662   -2.8077 H   0  0  0  0  0  0  0  0  0  0  0  0
    0.6343    1.3352   -2.3059 H   0  0  0  0  0  0  0  0  0  0  0  0
   -0.0402    1.0840   -3.9429 H   0  0  0  0  0  0  0  0  0  0  0  0
  1  2  1  0
  2  3  2  0
  3  4  1  0
  4  5  1  0
  5  6  2  0
  4  7  1  0
  7  8  1  0
  8  9  1  0
  8 10  2  0
 10 11  1  0
 11 12  3  0
 10 13  1  0
 13 14  1  0
 14 15  2  0
 15 16  1  0
 16 17  1  0
 17 18  1  0
 18 19  1  0
 19 20  1  0
 20 21  1  0
 16 22  2  0
 22 23  1  0
 23 24  1  0
 24 25  1  0
 24 26  1  0
 24 27  1  0
 23 28  2  0
 13 29  1  6
 29 30  1  0
 29 31  1  0
  6  2  1  0
 28 14  1  0
 13  3  1  0
 21 17  1  0
  1 32  1  0
  1 33  1  0
  1 34  1  0
  4 35  1  0
  9 36  1  0
  9 37  1  0
 15 38  1  0
 18 39  1  0
 18 40  1  0
 19 41  1  0
 19 42  1  0
 20 43  1  0
 20 44  1  0
 21 45  1  0
 21 46  1  0
 22 47  1  0
 28 48  1  0
 29 49  1  0
 30 50  1  0
 30 51  1  0
 30 52  1  0
 31 53  1  0
 31 54  1  0
 31 55  1  0
M  END
>  <tautomer smiles>  (17) 
CC1=C2C(N=N1)OC(N)=C(C#N)[C@@]2(c1cc(N2CCCC2)cc(C(F)(F)F)c1)C(C)C

>  <protonation smiles>  (17) 
CC1=C2C(N=N1)OC(N)=C(C#N)[C@@]2(c1cc(N2CCCC2)cc(C(F)(F)F)c1)C(C)C

>  <Score>  (17) 
27.22

>  <Label>  (17) 
high_energy

$$$$

     RDKit          3D

 56 59  0  0  0  0  0  0  0  0999 V2000
   -3.4045   -0.9224   -1.8170 C   0  0  0  0  0  0  0  0  0  0  0  0
   -3.5562    0.4098   -1.1626 C   0  0  0  0  0  0  0  0  0  0  0  0
   -2.6989    1.0410   -0.3515 C   0  0  0  0  0  0  0  0  0  0  0  0
   -3.2951    2.3749   -0.0948 C   0  0  0  0  0  0  0  0  0  0  0  0
   -4.6364    2.2550   -0.6386 N   0  0  0  0  0  0  0  0  0  0  0  0
   -4.7535    1.1656   -1.2785 N   0  0  0  0  0  0  0  0  0  0  0  0
   -3.2857    2.6124    1.2978 O   0  0  0  0  0  0  0  0  0  0  0  0
   -2.0777    2.4656    1.9864 C   0  0  0  0  0  0  0  0  0  0  0  0
   -1.8865    3.2409    3.1771 N   0  0  0  0  0  0  0  0  0  0  0  0
   -1.1152    1.6307    1.5011 C   0  0  0  0  0  0  0  0  0  0  0  0
    0.1983    1.6608    2.1170 C   0  0  0  0  0  0  0  0  0  0  0  0
    1.2449    1.6874    2.6106 N   0  0  0  0  0  0  0  0  0  0  0  0
   -1.4351    0.5610    0.4036 C   0  0  2  0  0  0  0  0  0  0  0  0
   -0.2285    0.4965   -0.5730 C   0  0  0  0  0  0  0  0  0  0  0  0
    0.9690   -0.1381   -0.1832 C   0  0  0  0  0  0  0  0  0  0  0  0
    2.0863   -0.2099   -1.0370 C   0  0  0  0  0  0  0  0  0  0  0  0
    3.2977   -0.9102   -0.6333 N   0  0  0  0  0  4  0  0  0  0  0  0
    3.0583   -2.3538   -0.4256 C   0  0  0  0  0  0  0  0  0  0  0  0
    3.6758   -2.7376    0.9089 C   0  0  0  0  0  0  0  0  0  0  0  0
    3.7493   -1.4440    1.6843 C   0  0  0  0  0  0  0  0  0  0  0  0
    3.8669   -0.3687    0.6183 C   0  0  0  0  0  0  0  0  0  0  0  0
    2.0130    0.4006   -2.2978 C   0  0  0  0  0  0  0  0  0  0  0  0
    0.8681    1.1087   -2.6874 C   0  0  0  0  0  0  0  0  0  0  0  0
    0.7910    1.7478   -4.0529 C   0  0  0  0  0  0  0  0  0  0  0  0
    2.0524    2.0785   -4.5177 F   0  0  0  0  0  0  0  0  0  0  0  0
    0.0332    2.9052   -4.0054 F   0  0  0  0  0  0  0  0  0  0  0  0
    0.2044    0.8614   -4.9366 F   0  0  0  0  0  0  0  0  0  0  0  0
   -0.2435    1.1446   -1.8307 C   0  0  0  0  0  0  0  0  0  0  0  0
   -1.7832   -0.8483    1.1028 C   0  0  0  0  0  0  0  0  0  0  0  0
   -1.4041   -0.9810    2.5946 C   0  0  0  0  0  0  0  0  0  0  0  0
   -1.2763   -2.1167    0.3700 C   0  0  0  0  0  0  0  0  0  0  0  0
   -2.4070   -1.0003   -2.2945 H   0  0  0  0  0  0  0  0  0  0  0  0
   -4.1640   -1.0254   -2.6197 H   0  0  0  0  0  0  0  0  0  0  0  0
   -3.5751   -1.7363   -1.0853 H   0  0  0  0  0  0  0  0  0  0  0  0
   -2.7306    3.1674   -0.6334 H   0  0  0  0  0  0  0  0  0  0  0  0
   -1.0370    3.1575    3.7776 H   0  0  0  0  0  0  0  0  0  0  0  0
   -2.6385    3.8950    3.4874 H   0  0  0  0  0  0  0  0  0  0  0  0
    1.0407   -0.5872    0.7945 H   0  0  0  0  0  0  0  0  0  0  0  0
    4.0260   -0.8113   -1.3815 H   0  0  0  0  0  0  0  0  0  0  0  0
    3.5196   -2.9528   -1.2433 H   0  0  0  0  0  0  0  0  0  0  0  0
    1.9744   -2.6093   -0.4069 H   0  0  0  0  0  0  0  0  0  0  0  0
    4.7025   -3.1344    0.7473 H   0  0  0  0  0  0  0  0  0  0  0  0
    3.0641   -3.4974    1.4423 H   0  0  0  0  0  0  0  0  0  0  0  0
    4.6187   -1.4327    2.3769 H   0  0  0  0  0  0  0  0  0  0  0  0
    2.8132   -1.3002    2.2671 H   0  0  0  0  0  0  0  0  0  0  0  0
    4.9460   -0.1317    0.4714 H   0  0  0  0  0  0  0  0  0  0  0  0
    3.3736    0.5713    0.9550 H   0  0  0  0  0  0  0  0  0  0  0  0
    2.8576    0.3325   -2.9720 H   0  0  0  0  0  0  0  0  0  0  0  0
   -1.1178    1.6849   -2.1636 H   0  0  0  0  0  0  0  0  0  0  0  0
   -2.8923   -0.9422    1.1232 H   0  0  0  0  0  0  0  0  0  0  0  0
   -1.9062   -0.2021    3.2059 H   0  0  0  0  0  0  0  0  0  0  0  0
   -0.3058   -0.9226    2.7381 H   0  0  0  0  0  0  0  0  0  0  0  0
   -1.7450   -1.9631    2.9882 H   0  0  0  0  0  0  0  0  0  0  0  0
   -1.9839   -2.9566    0.5393 H   0  0  0  0  0  0  0  0  0  0  0  0
   -1.1718   -1.9738   -0.7193 H   0  0  0  0  0  0  0  0  0  0  0  0
   -0.2896   -2.4470    0.7561 H   0  0  0  0  0  0  0  0  0  0  0  0
  1  2  1  0
  2  3  2  0
  3  4  1  0
  4  5  1  0
  5  6  2  0
  4  7  1  0
  7  8  1  0
  8  9  1  0
  8 10  2  0
 10 11  1  0
 11 12  3  0
 10 13  1  0
 13 14  1  0
 14 15  2  0
 15 16  1  0
 16 17  1  0
 17 18  1  0
 18 19  1  0
 19 20  1  0
 20 21  1  0
 16 22  2  0
 22 23  1  0
 23 24  1  0
 24 25  1  0
 24 26  1  0
 24 27  1  0
 23 28  2  0
 13 29  1  1
 29 30  1  0
 29 31  1  0
  6  2  1  0
 28 14  1  0
 13  3  1  0
 21 17  1  0
  1 32  1  0
  1 33  1  0
  1 34  1  0
  4 35  1  0
  9 36  1  0
  9 37  1  0
 15 38  1  0
 17 39  1  0
 18 40  1  0
 18 41  1  0
 19 42  1  0
 19 43  1  0
 20 44  1  0
 20 45  1  0
 21 46  1  0
 21 47  1  0
 22 48  1  0
 28 49  1  0
 29 50  1  0
 30 51  1  0
 30 52  1  0
 30 53  1  0
 31 54  1  0
 31 55  1  0
 31 56  1  0
M  CHG  1  17   1
M  END
>  <tautomer smiles>  (18) 
CC1=C2C(N=N1)OC(N)=C(C#N)[C@@]2(c1cc(N2CCCC2)cc(C(F)(F)F)c1)C(C)C

>  <protonation smiles>  (18) 
CC1=C2C(N=N1)OC(N)=C(C#N)[C@@]2(c1cc([NH+]2CCCC2)cc(C(F)(F)F)c1)C(C)C

>  <Score>  (18) 
27.22

>  <Label>  (18) 
high_energy

$$$$

     RDKit          3D

 55 58  0  0  0  0  0  0  0  0999 V2000
   -0.1835    3.0692   -1.3943 C   0  0  0  0  0  0  0  0  0  0  0  0
   -1.2784    2.5071   -0.5458 C   0  0  0  0  0  0  0  0  0  0  0  0
   -1.6890    3.1213    0.5172 N   0  0  0  0  0  0  0  0  0  0  0  0
   -2.8558    2.5200    0.9943 N   0  0  0  0  0  0  0  0  0  0  0  0
   -3.1649    1.5547    0.2017 C   0  0  0  0  0  0  0  0  0  0  0  0
   -4.2200    0.6833    0.4113 O   0  0  0  0  0  0  0  0  0  0  0  0
   -4.1913   -0.5626   -0.2167 C   0  0  0  0  0  0  0  0  0  0  0  0
   -5.2739   -1.2773   -0.2257 N   0  0  0  0  0  0  0  0  0  0  0  0
   -2.9102   -1.0515   -0.8314 C   0  0  0  0  0  0  0  0  0  0  0  0
   -2.7409   -2.3500   -0.9275 C   0  0  0  0  0  0  0  0  0  0  0  0
   -2.5836   -3.6073   -1.0087 N   0  0  0  0  0  0  0  0  0  0  0  0
   -1.6845   -0.0963   -0.9589 C   0  0  1  0  0  0  0  0  0  0  0  0
   -0.7252   -0.2955    0.2568 C   0  0  0  0  0  0  0  0  0  0  0  0
    0.6417    0.0595    0.1808 C   0  0  0  0  0  0  0  0  0  0  0  0
    1.5099   -0.0852    1.2787 C   0  0  0  0  0  0  0  0  0  0  0  0
    2.9173    0.2365    1.1565 N   0  0  0  0  0  0  0  0  0  0  0  0
    3.5078    0.8912   -0.0026 C   0  0  0  0  0  0  0  0  0  0  0  0
    4.9575    1.1698    0.3671 C   0  0  0  0  0  0  0  0  0  0  0  0
    5.2619    0.2655    1.5547 C   0  0  0  0  0  0  0  0  0  0  0  0
    3.9128   -0.0696    2.1744 C   0  0  0  0  0  0  0  0  0  0  0  0
    0.9868   -0.5501    2.4956 C   0  0  0  0  0  0  0  0  0  0  0  0
   -0.3772   -0.8374    2.6297 C   0  0  0  0  0  0  0  0  0  0  0  0
   -0.9260   -1.3542    3.9380 C   0  0  0  0  0  0  0  0  0  0  0  0
   -0.1719   -0.8987    5.0059 F   0  0  0  0  0  0  0  0  0  0  0  0
   -0.9009   -2.7362    3.9267 F   0  0  0  0  0  0  0  0  0  0  0  0
   -2.2305   -0.9284    4.1209 F   0  0  0  0  0  0  0  0  0  0  0  0
   -1.2158   -0.7234    1.5119 C   0  0  0  0  0  0  0  0  0  0  0  0
   -0.9535   -0.3604   -2.3531 C   0  0  0  0  0  0  0  0  0  0  0  0
   -0.1806   -1.6992   -2.4402 C   0  0  0  0  0  0  0  0  0  0  0  0
   -1.8815   -0.2495   -3.5842 C   0  0  0  0  0  0  0  0  0  0  0  0
   -2.2190    1.3914   -0.9290 C   0  0  0  0  0  0  0  0  0  0  0  0
   -0.2079    2.6388   -2.4139 H   0  0  0  0  0  0  0  0  0  0  0  0
   -0.3164    4.1672   -1.4914 H   0  0  0  0  0  0  0  0  0  0  0  0
    0.7988    2.8699   -0.9214 H   0  0  0  0  0  0  0  0  0  0  0  0
   -5.3322   -2.2188   -0.6736 H   0  0  0  0  0  0  0  0  0  0  0  0
   -1.7379   -4.0533   -0.5909 H   0  0  0  0  0  0  0  0  0  0  0  0
    1.0462    0.4339   -0.7422 H   0  0  0  0  0  0  0  0  0  0  0  0
    3.4590    0.2119   -0.8814 H   0  0  0  0  0  0  0  0  0  0  0  0
    2.9792    1.8433   -0.2236 H   0  0  0  0  0  0  0  0  0  0  0  0
    5.6411    0.9637   -0.4850 H   0  0  0  0  0  0  0  0  0  0  0  0
    5.0668    2.2334    0.6746 H   0  0  0  0  0  0  0  0  0  0  0  0
    5.7492   -0.6672    1.1939 H   0  0  0  0  0  0  0  0  0  0  0  0
    5.9314    0.7684    2.2860 H   0  0  0  0  0  0  0  0  0  0  0  0
    3.8726   -1.1466    2.4478 H   0  0  0  0  0  0  0  0  0  0  0  0
    3.7348    0.5608    3.0726 H   0  0  0  0  0  0  0  0  0  0  0  0
    1.6367   -0.6770    3.3504 H   0  0  0  0  0  0  0  0  0  0  0  0
   -2.2593   -0.9685    1.6382 H   0  0  0  0  0  0  0  0  0  0  0  0
   -0.1947    0.4284   -2.5032 H   0  0  0  0  0  0  0  0  0  0  0  0
    0.6287   -1.6111   -3.1966 H   0  0  0  0  0  0  0  0  0  0  0  0
    0.2910   -1.9892   -1.4816 H   0  0  0  0  0  0  0  0  0  0  0  0
   -0.8392   -2.5289   -2.7691 H   0  0  0  0  0  0  0  0  0  0  0  0
   -1.3332   -0.5478   -4.5038 H   0  0  0  0  0  0  0  0  0  0  0  0
   -2.7686   -0.9089   -3.4879 H   0  0  0  0  0  0  0  0  0  0  0  0
   -2.2150    0.7930   -3.7526 H   0  0  0  0  0  0  0  0  0  0  0  0
   -2.7683    1.6679   -1.8490 H   0  0  0  0  0  0  0  0  0  0  0  0
  1  2  1  0
  2  3  2  0
  3  4  1  0
  4  5  2  0
  5  6  1  0
  6  7  1  0
  7  8  2  3
  7  9  1  0
  9 10  2  0
 10 11  2  0
  9 12  1  0
 12 13  1  0
 13 14  2  0
 14 15  1  0
 15 16  1  0
 16 17  1  0
 17 18  1  0
 18 19  1  0
 19 20  1  0
 15 21  2  0
 21 22  1  0
 22 23  1  0
 23 24  1  0
 23 25  1  0
 23 26  1  0
 22 27  2  0
 12 28  1  6
 28 29  1  0
 28 30  1  0
 12 31  1  0
 31  2  1  0
 31  5  1  0
 27 13  1  0
 20 16  1  0
  1 32  1  0
  1 33  1  0
  1 34  1  0
  8 35  1  0
 11 36  1  0
 14 37  1  0
 17 38  1  0
 17 39  1  0
 18 40  1  0
 18 41  1  0
 19 42  1  0
 19 43  1  0
 20 44  1  0
 20 45  1  0
 21 46  1  0
 27 47  1  0
 28 48  1  0
 29 49  1  0
 29 50  1  0
 29 51  1  0
 30 52  1  0
 30 53  1  0
 30 54  1  0
 31 55  1  0
M  END
>  <tautomer smiles>  (19) 
CC1=NN=C2OC(=N)C(=C=N)[C@@](c3cc(N4CCCC4)cc(C(F)(F)F)c3)(C(C)C)C12

>  <protonation smiles>  (19) 
CC1=NN=C2OC(=N)C(=C=N)[C@@](c3cc(N4CCCC4)cc(C(F)(F)F)c3)(C(C)C)C12

>  <Score>  (19) 
31.1

>  <Label>  (19) 
high_energy

$$$$

     RDKit          3D

 55 58  0  0  0  0  0  0  0  0999 V2000
   -0.9024    2.8159   -1.0230 C   0  0  0  0  0  0  0  0  0  0  0  0
   -2.2002    2.0282   -1.2001 C   0  0  0  0  0  0  0  0  0  0  0  0
   -3.3348    2.9504   -1.1679 N   0  0  0  0  0  0  0  0  0  0  0  0
   -4.1394    2.6682   -0.2271 N   0  0  0  0  0  0  0  0  0  0  0  0
   -3.6531    1.5354    0.4625 C   0  0  0  0  0  0  0  0  0  0  0  0
   -2.5070    1.1108   -0.0402 C   0  0  0  0  0  0  0  0  0  0  0  0
   -1.8490   -0.2197    0.3418 C   0  0  2  0  0  0  0  0  0  0  0  0
   -0.3609    0.1025    0.6226 C   0  0  0  0  0  0  0  0  0  0  0  0
    0.6871   -0.2255   -0.2672 C   0  0  0  0  0  0  0  0  0  0  0  0
    2.0209    0.1366    0.0005 C   0  0  0  0  0  0  0  0  0  0  0  0
    3.0797   -0.2111   -0.9249 N   0  0  0  0  0  0  0  0  0  0  0  0
    2.9109   -1.1144   -2.0547 C   0  0  0  0  0  0  0  0  0  0  0  0
    4.3046   -1.3358   -2.6244 C   0  0  0  0  0  0  0  0  0  0  0  0
    5.1573   -0.1961   -2.0812 C   0  0  0  0  0  0  0  0  0  0  0  0
    4.4430    0.2917   -0.8289 C   0  0  0  0  0  0  0  0  0  0  0  0
    2.3047    0.8553    1.1742 C   0  0  0  0  0  0  0  0  0  0  0  0
    1.2861    1.2027    2.0714 C   0  0  0  0  0  0  0  0  0  0  0  0
    1.5937    2.0374    3.2903 C   0  0  0  0  0  0  0  0  0  0  0  0
    0.7054    1.7541    4.3136 F   0  0  0  0  0  0  0  0  0  0  0  0
    2.8746    1.7833    3.7497 F   0  0  0  0  0  0  0  0  0  0  0  0
    1.4903    3.3761    2.9619 F   0  0  0  0  0  0  0  0  0  0  0  0
   -0.0376    0.8546    1.7716 C   0  0  0  0  0  0  0  0  0  0  0  0
   -2.0897   -1.2492   -0.8394 C   0  0  0  0  0  0  0  0  0  0  0  0
   -1.4886   -2.6508   -0.5888 C   0  0  0  0  0  0  0  0  0  0  0  0
   -3.5816   -1.4206   -1.1986 C   0  0  0  0  0  0  0  0  0  0  0  0
   -2.4971   -0.7748    1.6325 C   0  0  0  0  0  0  0  0  0  0  0  0
   -1.8920   -1.7159    2.3224 C   0  0  0  0  0  0  0  0  0  0  0  0
   -1.3023   -2.6228    2.9866 N   0  0  0  0  0  0  0  0  0  0  0  0
   -3.7987   -0.2265    2.1157 C   0  0  0  0  0  0  0  0  0  0  0  0
   -4.4586   -0.7693    3.0921 N   0  0  0  0  0  0  0  0  0  0  0  0
   -4.3295    0.9079    1.5030 O   0  0  0  0  0  0  0  0  0  0  0  0
   -0.8715    3.6539   -1.7512 H   0  0  0  0  0  0  0  0  0  0  0  0
   -0.8304    3.2347    0.0039 H   0  0  0  0  0  0  0  0  0  0  0  0
   -0.0253    2.1715   -1.2242 H   0  0  0  0  0  0  0  0  0  0  0  0
   -2.1988    1.4731   -2.1619 H   0  0  0  0  0  0  0  0  0  0  0  0
    0.4764   -0.7354   -1.1901 H   0  0  0  0  0  0  0  0  0  0  0  0
    2.4730   -2.0801   -1.7201 H   0  0  0  0  0  0  0  0  0  0  0  0
    2.2558   -0.6402   -2.8177 H   0  0  0  0  0  0  0  0  0  0  0  0
    4.7075   -2.3060   -2.2587 H   0  0  0  0  0  0  0  0  0  0  0  0
    4.2937   -1.3399   -3.7360 H   0  0  0  0  0  0  0  0  0  0  0  0
    5.1988    0.6246   -2.8309 H   0  0  0  0  0  0  0  0  0  0  0  0
    6.1910   -0.5360   -1.8534 H   0  0  0  0  0  0  0  0  0  0  0  0
    4.9320   -0.1246    0.0786 H   0  0  0  0  0  0  0  0  0  0  0  0
    4.4467    1.4029   -0.7911 H   0  0  0  0  0  0  0  0  0  0  0  0
    3.3201    1.1562    1.3923 H   0  0  0  0  0  0  0  0  0  0  0  0
   -0.8303    1.1810    2.4339 H   0  0  0  0  0  0  0  0  0  0  0  0
   -1.6162   -0.8452   -1.7594 H   0  0  0  0  0  0  0  0  0  0  0  0
   -0.4780   -2.6041   -0.1388 H   0  0  0  0  0  0  0  0  0  0  0  0
   -2.1368   -3.2479    0.0870 H   0  0  0  0  0  0  0  0  0  0  0  0
   -1.4073   -3.2000   -1.5510 H   0  0  0  0  0  0  0  0  0  0  0  0
   -4.0218   -0.4656   -1.5519 H   0  0  0  0  0  0  0  0  0  0  0  0
   -3.6936   -2.1543   -2.0256 H   0  0  0  0  0  0  0  0  0  0  0  0
   -4.1636   -1.7873   -0.3273 H   0  0  0  0  0  0  0  0  0  0  0  0
   -0.3225   -2.8887    2.7459 H   0  0  0  0  0  0  0  0  0  0  0  0
   -4.1347   -1.6212    3.6017 H   0  0  0  0  0  0  0  0  0  0  0  0
  1  2  1  0
  2  3  1  0
  3  4  2  0
  4  5  1  0
  5  6  2  0
  6  7  1  0
  7  8  1  0
  8  9  2  0
  9 10  1  0
 10 11  1  0
 11 12  1  0
 12 13  1  0
 13 14  1  0
 14 15  1  0
 10 16  2  0
 16 17  1  0
 17 18  1  0
 18 19  1  0
 18 20  1  0
 18 21  1  0
 17 22  2  0
  7 23  1  6
 23 24  1  0
 23 25  1  0
  7 26  1  0
 26 27  2  0
 27 28  2  0
 26 29  1  0
 29 30  2  3
 29 31  1  0
  6  2  1  0
 22  8  1  0
 31  5  1  0
 15 11  1  0
  1 32  1  0
  1 33  1  0
  1 34  1  0
  2 35  1  0
  9 36  1  0
 12 37  1  0
 12 38  1  0
 13 39  1  0
 13 40  1  0
 14 41  1  0
 14 42  1  0
 15 43  1  0
 15 44  1  0
 16 45  1  0
 22 46  1  0
 23 47  1  0
 24 48  1  0
 24 49  1  0
 24 50  1  0
 25 51  1  0
 25 52  1  0
 25 53  1  0
 28 54  1  0
 30 55  1  0
M  END
>  <tautomer smiles>  (20) 
CC1N=NC2=C1[C@](c1cc(N3CCCC3)cc(C(F)(F)F)c1)(C(C)C)C(=C=N)C(=N)O2

>  <protonation smiles>  (20) 
CC1N=NC2=C1[C@](c1cc(N3CCCC3)cc(C(F)(F)F)c1)(C(C)C)C(=C=N)C(=N)O2

>  <Score>  (20) 
38.3

>  <Label>  (20) 
high_energy

$$$$

     RDKit          3D

 55 58  0  0  0  0  0  0  0  0999 V2000
   -1.1103    2.1111   -1.7877 C   0  0  0  0  0  0  0  0  0  0  0  0
   -1.9034    2.1984   -0.5207 C   0  0  0  0  0  0  0  0  0  0  0  0
   -2.2171    1.2165    0.3323 C   0  0  0  0  0  0  0  0  0  0  0  0
   -3.0446    1.8345    1.4041 C   0  0  0  0  0  0  0  0  0  0  0  0
   -2.9839    3.2518    1.0830 N   0  0  0  0  0  0  0  0  0  0  0  0
   -2.3625    3.4398   -0.0081 N   0  0  0  0  0  0  0  0  0  0  0  0
   -2.4644    1.5628    2.6686 O   0  0  0  0  0  0  0  0  0  0  0  0
   -1.9373    0.3008    2.9585 C   0  0  0  0  0  0  0  0  0  0  0  0
   -1.6452    0.0299    4.1938 N   0  0  0  0  0  0  0  0  0  0  0  0
   -1.6982   -0.6834    1.8477 C   0  0  0  0  0  0  0  0  0  0  0  0
   -1.2061   -1.8663    2.1432 C   0  0  0  0  0  0  0  0  0  0  0  0
   -0.7264   -3.0076    2.4248 N   0  0  0  0  0  0  0  0  0  0  0  0
   -1.8635   -0.2759    0.3584 C   0  0  2  0  0  0  0  0  0  0  0  0
   -0.4881   -0.4898   -0.3274 C   0  0  0  0  0  0  0  0  0  0  0  0
    0.6392    0.1495    0.2358 C   0  0  0  0  0  0  0  0  0  0  0  0
    1.9258    0.0071   -0.3113 C   0  0  0  0  0  0  0  0  0  0  0  0
    3.0615    0.6731    0.2911 N   0  0  0  0  0  0  0  0  0  0  0  0
    4.4453    0.4301   -0.0909 C   0  0  0  0  0  0  0  0  0  0  0  0
    5.2955    1.2077    0.9036 C   0  0  0  0  0  0  0  0  0  0  0  0
    4.3578    2.2257    1.5409 C   0  0  0  0  0  0  0  0  0  0  0  0
    2.9538    1.6717    1.3455 C   0  0  0  0  0  0  0  0  0  0  0  0
    2.0859   -0.7922   -1.4543 C   0  0  0  0  0  0  0  0  0  0  0  0
    0.9854   -1.4197   -2.0543 C   0  0  0  0  0  0  0  0  0  0  0  0
    1.1771   -2.3121   -3.2573 C   0  0  0  0  0  0  0  0  0  0  0  0
    2.2817   -1.9204   -3.9941 F   0  0  0  0  0  0  0  0  0  0  0  0
    1.3589   -3.6147   -2.8322 F   0  0  0  0  0  0  0  0  0  0  0  0
    0.0683   -2.2581   -4.0844 F   0  0  0  0  0  0  0  0  0  0  0  0
   -0.2854   -1.2871   -1.4734 C   0  0  0  0  0  0  0  0  0  0  0  0
   -3.1122   -1.0580   -0.2351 C   0  0  0  0  0  0  0  0  0  0  0  0
   -3.5946   -0.5711   -1.6226 C   0  0  0  0  0  0  0  0  0  0  0  0
   -3.0232   -2.6032   -0.1743 C   0  0  0  0  0  0  0  0  0  0  0  0
   -1.3505    2.9812   -2.4333 H   0  0  0  0  0  0  0  0  0  0  0  0
   -1.3602    1.1923   -2.3523 H   0  0  0  0  0  0  0  0  0  0  0  0
   -0.0254    2.1370   -1.5603 H   0  0  0  0  0  0  0  0  0  0  0  0
   -4.0930    1.4695    1.3633 H   0  0  0  0  0  0  0  0  0  0  0  0
   -1.2384   -0.8790    4.5071 H   0  0  0  0  0  0  0  0  0  0  0  0
   -0.1566   -3.5205    1.7170 H   0  0  0  0  0  0  0  0  0  0  0  0
    0.5002    0.7660    1.1134 H   0  0  0  0  0  0  0  0  0  0  0  0
    4.6199    0.8063   -1.1224 H   0  0  0  0  0  0  0  0  0  0  0  0
    4.6806   -0.6550   -0.0335 H   0  0  0  0  0  0  0  0  0  0  0  0
    5.6792    0.5173    1.6868 H   0  0  0  0  0  0  0  0  0  0  0  0
    6.1540    1.7054    0.4025 H   0  0  0  0  0  0  0  0  0  0  0  0
    4.5906    2.3726    2.6179 H   0  0  0  0  0  0  0  0  0  0  0  0
    4.4524    3.1987    1.0101 H   0  0  0  0  0  0  0  0  0  0  0  0
    2.5969    1.1898    2.2816 H   0  0  0  0  0  0  0  0  0  0  0  0
    2.2575    2.4842    1.0431 H   0  0  0  0  0  0  0  0  0  0  0  0
    3.0680   -0.9259   -1.8863 H   0  0  0  0  0  0  0  0  0  0  0  0
   -1.0943   -1.8219   -1.9336 H   0  0  0  0  0  0  0  0  0  0  0  0
   -3.9689   -0.8120    0.4342 H   0  0  0  0  0  0  0  0  0  0  0  0
   -4.5037   -1.1317   -1.9280 H   0  0  0  0  0  0  0  0  0  0  0  0
   -2.8405   -0.6936   -2.4185 H   0  0  0  0  0  0  0  0  0  0  0  0
   -3.8899    0.4973   -1.5849 H   0  0  0  0  0  0  0  0  0  0  0  0
   -1.9982   -2.9885   -0.3254 H   0  0  0  0  0  0  0  0  0  0  0  0
   -3.3604   -2.9598    0.8225 H   0  0  0  0  0  0  0  0  0  0  0  0
   -3.6890   -3.0805   -0.9240 H   0  0  0  0  0  0  0  0  0  0  0  0
  1  2  1  0
  2  3  2  0
  3  4  1  0
  4  5  1  0
  5  6  2  0
  4  7  1  0
  7  8  1  0
  8  9  2  3
  8 10  1  0
 10 11  2  0
 11 12  2  0
 10 13  1  0
 13 14  1  0
 14 15  2  0
 15 16  1  0
 16 17  1  0
 17 18  1  0
 18 19  1  0
 19 20  1  0
 20 21  1  0
 16 22  2  0
 22 23  1  0
 23 24  1  0
 24 25  1  0
 24 26  1  0
 24 27  1  0
 23 28  2  0
 13 29  1  6
 29 30  1  0
 29 31  1  0
  6  2  1  0
 28 14  1  0
 13  3  1  0
 21 17  1  0
  1 32  1  0
  1 33  1  0
  1 34  1  0
  4 35  1  0
  9 36  1  0
 12 37  1  0
 15 38  1  0
 18 39  1  0
 18 40  1  0
 19 41  1  0
 19 42  1  0
 20 43  1  0
 20 44  1  0
 21 45  1  0
 21 46  1  0
 22 47  1  0
 28 48  1  0
 29 49  1  0
 30 50  1  0
 30 51  1  0
 30 52  1  0
 31 53  1  0
 31 54  1  0
 31 55  1  0
M  END
>  <tautomer smiles>  (21) 
CC1=C2C(N=N1)OC(=N)C(=C=N)[C@@]2(c1cc(N2CCCC2)cc(C(F)(F)F)c1)C(C)C

>  <protonation smiles>  (21) 
CC1=C2C(N=N1)OC(=N)C(=C=N)[C@@]2(c1cc(N2CCCC2)cc(C(F)(F)F)c1)C(C)C

>  <Score>  (21) 
44.53

>  <Label>  (21) 
high_energy

$$$$
